(PID.TID 0000.0001) 
(PID.TID 0000.0001) // ======================================================
(PID.TID 0000.0001) //                      MITgcm UV
(PID.TID 0000.0001) //                      =========
(PID.TID 0000.0001) // ======================================================
(PID.TID 0000.0001) // execution environment starting up...
(PID.TID 0000.0001) 
(PID.TID 0000.0001) // MITgcmUV version:  checkpoint68h
(PID.TID 0000.0001) // Build user:        jahn
(PID.TID 0000.0001) // Build host:        node678.cm.cluster
(PID.TID 0000.0001) // Build date:        Sun Mar 27 19:29:07 EDT 2022
(PID.TID 0000.0001) 
(PID.TID 0000.0001) // =======================================================
(PID.TID 0000.0001) // Execution Environment parameter file "eedata"
(PID.TID 0000.0001) // =======================================================
(PID.TID 0000.0001) ># Example "eedata" file
(PID.TID 0000.0001) ># Lines beginning "#" are comments
(PID.TID 0000.0001) ># nTx - No. threads per process in X
(PID.TID 0000.0001) ># nTy - No. threads per process in Y
(PID.TID 0000.0001) > &EEPARMS
(PID.TID 0000.0001) > nTx=1,
(PID.TID 0000.0001) > nTy=1,
(PID.TID 0000.0001) > &
(PID.TID 0000.0001) ># Note: Some systems use & as the namelist terminator (as shown here).
(PID.TID 0000.0001) >#       Other systems use a / character.
(PID.TID 0000.0001) 
(PID.TID 0000.0001) // =======================================================
(PID.TID 0000.0001) // Computational Grid Specification ( see files "SIZE.h" )
(PID.TID 0000.0001) //                                  ( and "eedata"       )
(PID.TID 0000.0001) // =======================================================
(PID.TID 0000.0001)      nPx =    1 ; /* No. processes in X */
(PID.TID 0000.0001)      nPy =    1 ; /* No. processes in Y */
(PID.TID 0000.0001)      nSx =    2 ; /* No. tiles in X per process */
(PID.TID 0000.0001)      nSy =    2 ; /* No. tiles in Y per process */
(PID.TID 0000.0001)      sNx =   64 ; /* Tile size in X */
(PID.TID 0000.0001)      sNy =   32 ; /* Tile size in Y */
(PID.TID 0000.0001)      OLx =    4 ; /* Tile overlap distance in X */
(PID.TID 0000.0001)      OLy =    4 ; /* Tile overlap distance in Y */
(PID.TID 0000.0001)      nTx =    1 ; /* No. threads in X per process */
(PID.TID 0000.0001)      nTy =    1 ; /* No. threads in Y per process */
(PID.TID 0000.0001)       Nr =   15 ; /* No. levels in the vertical   */
(PID.TID 0000.0001)       Nx =  128 ; /* Total domain size in X ( = nPx*nSx*sNx ) */
(PID.TID 0000.0001)       Ny =   64 ; /* Total domain size in Y ( = nPy*nSy*sNy ) */
(PID.TID 0000.0001)   nTiles =    4 ; /* Total no. tiles per process ( = nSx*nSy ) */
(PID.TID 0000.0001)   nProcs =    1 ; /* Total no. processes ( = nPx*nPy ) */
(PID.TID 0000.0001) nThreads =    1 ; /* Total no. threads per process ( = nTx*nTy ) */
(PID.TID 0000.0001) usingMPI =    F ; /* Flag used to control whether MPI is in use */
(PID.TID 0000.0001)                   /*  note: To execute a program with MPI calls */
(PID.TID 0000.0001)                   /*  it must be launched appropriately e.g     */
(PID.TID 0000.0001)                   /*  "mpirun -np 64 ......"                    */
(PID.TID 0000.0001) useCoupler=   F ; /* Flag used to control communications with   */
(PID.TID 0000.0001)                   /*  other model components, through a coupler */
(PID.TID 0000.0001) useNest2W_parent =    F ;/* Control 2-W Nesting comm */
(PID.TID 0000.0001) useNest2W_child  =    F ;/* Control 2-W Nesting comm */
(PID.TID 0000.0001) debugMode =    F ; /* print debug msg. (sequence of S/R calls)  */
(PID.TID 0000.0001) printMapIncludesZeros=    F ; /* print zeros in Std.Output maps */
(PID.TID 0000.0001) maxLengthPrt1D=   65 /* maxLength of 1D array printed to StdOut */
(PID.TID 0000.0001) 
(PID.TID 0000.0001) // ======================================================
(PID.TID 0000.0001) // Mapping of tiles to threads
(PID.TID 0000.0001) // ======================================================
(PID.TID 0000.0001) // -o- Thread   1, tiles (   1:   2,   1:   2)
(PID.TID 0000.0001) 
(PID.TID 0000.0001) // ======================================================
(PID.TID 0000.0001) // Tile <-> Tile connectvity table
(PID.TID 0000.0001) // ======================================================
(PID.TID 0000.0001) // Tile number: 000001 (process no. = 000000)
(PID.TID 0000.0001) //        WEST: Tile = 000002, Process = 000000, Comm = put
(PID.TID 0000.0001) //                bi = 000002, bj = 000001
(PID.TID 0000.0001) //        EAST: Tile = 000002, Process = 000000, Comm = put
(PID.TID 0000.0001) //                bi = 000002, bj = 000001
(PID.TID 0000.0001) //       SOUTH: Tile = 000003, Process = 000000, Comm = put
(PID.TID 0000.0001) //                bi = 000001, bj = 000002
(PID.TID 0000.0001) //       NORTH: Tile = 000003, Process = 000000, Comm = put
(PID.TID 0000.0001) //                bi = 000001, bj = 000002
(PID.TID 0000.0001) // Tile number: 000002 (process no. = 000000)
(PID.TID 0000.0001) //        WEST: Tile = 000001, Process = 000000, Comm = put
(PID.TID 0000.0001) //                bi = 000001, bj = 000001
(PID.TID 0000.0001) //        EAST: Tile = 000001, Process = 000000, Comm = put
(PID.TID 0000.0001) //                bi = 000001, bj = 000001
(PID.TID 0000.0001) //       SOUTH: Tile = 000004, Process = 000000, Comm = put
(PID.TID 0000.0001) //                bi = 000002, bj = 000002
(PID.TID 0000.0001) //       NORTH: Tile = 000004, Process = 000000, Comm = put
(PID.TID 0000.0001) //                bi = 000002, bj = 000002
(PID.TID 0000.0001) // Tile number: 000003 (process no. = 000000)
(PID.TID 0000.0001) //        WEST: Tile = 000004, Process = 000000, Comm = put
(PID.TID 0000.0001) //                bi = 000002, bj = 000002
(PID.TID 0000.0001) //        EAST: Tile = 000004, Process = 000000, Comm = put
(PID.TID 0000.0001) //                bi = 000002, bj = 000002
(PID.TID 0000.0001) //       SOUTH: Tile = 000001, Process = 000000, Comm = put
(PID.TID 0000.0001) //                bi = 000001, bj = 000001
(PID.TID 0000.0001) //       NORTH: Tile = 000001, Process = 000000, Comm = put
(PID.TID 0000.0001) //                bi = 000001, bj = 000001
(PID.TID 0000.0001) // Tile number: 000004 (process no. = 000000)
(PID.TID 0000.0001) //        WEST: Tile = 000003, Process = 000000, Comm = put
(PID.TID 0000.0001) //                bi = 000001, bj = 000002
(PID.TID 0000.0001) //        EAST: Tile = 000003, Process = 000000, Comm = put
(PID.TID 0000.0001) //                bi = 000001, bj = 000002
(PID.TID 0000.0001) //       SOUTH: Tile = 000002, Process = 000000, Comm = put
(PID.TID 0000.0001) //                bi = 000002, bj = 000001
(PID.TID 0000.0001) //       NORTH: Tile = 000002, Process = 000000, Comm = put
(PID.TID 0000.0001) //                bi = 000002, bj = 000001
(PID.TID 0000.0001) 
(PID.TID 0000.0001)  INI_PARMS: opening model parameter file "data"
(PID.TID 0000.0001)  OPEN_COPY_DATA_FILE: opening file data
(PID.TID 0000.0001) // =======================================================
(PID.TID 0000.0001) // Parameter file "data"
(PID.TID 0000.0001) // =======================================================
(PID.TID 0000.0001) ># ====================
(PID.TID 0000.0001) ># | Model parameters |
(PID.TID 0000.0001) ># ====================
(PID.TID 0000.0001) >#
(PID.TID 0000.0001) ># Continuous equation parameters
(PID.TID 0000.0001) > &PARM01
(PID.TID 0000.0001) > tRef=15*20.,
(PID.TID 0000.0001) > sRef=15*35.,
(PID.TID 0000.0001) > viscA4=0.,
(PID.TID 0000.0001) > viscAh=2.E5,
(PID.TID 0000.0001) > diffKhT=0.E3,
(PID.TID 0000.0001) > diffKhS=0.E3,
(PID.TID 0000.0001) > viscAz=1.E-3,
(PID.TID 0000.0001) >#diffKzT=3.E-5,
(PID.TID 0000.0001) >#diffKzS=3.E-5,
(PID.TID 0000.0001) > diffKrBL79surf= 3.E-5,
(PID.TID 0000.0001) > diffKrBL79deep= 13.E-5,
(PID.TID 0000.0001) > diffKrBL79Ho  = -2000.,
(PID.TID 0000.0001) > diffKrBL79scl = 150.,
(PID.TID 0000.0001) > gravity=9.81,
(PID.TID 0000.0001) > rhoConst=1035.,
(PID.TID 0000.0001) > rhoConstFresh=1000.,
(PID.TID 0000.0001) > implicitFreeSurface=.TRUE.,
(PID.TID 0000.0001) > eosType='JMD95Z',
(PID.TID 0000.0001) > implicitDiffusion=.TRUE.,
(PID.TID 0000.0001) > implicitViscosity=.TRUE.,
(PID.TID 0000.0001) > ivdc_kappa=100.,
(PID.TID 0000.0001) > tempAdvScheme       = 2,
(PID.TID 0000.0001) > saltAdvScheme       = 2,
(PID.TID 0000.0001) > allowFreezing=.TRUE.,
(PID.TID 0000.0001) ># turn on looped cells
(PID.TID 0000.0001) > hFacMin=.1,
(PID.TID 0000.0001) > hFacMindz=50.,
(PID.TID 0000.0001) > useCDscheme=.TRUE.,
(PID.TID 0000.0001) >#useSingleCPUio=.TRUE.,
(PID.TID 0000.0001) > &
(PID.TID 0000.0001) >
(PID.TID 0000.0001) ># Elliptic solver parameters
(PID.TID 0000.0001) > &PARM02
(PID.TID 0000.0001) > cg2dMaxIters=1000,
(PID.TID 0000.0001) > cg2dTargetResidual=1.E-13,
(PID.TID 0000.0001) > &
(PID.TID 0000.0001) >
(PID.TID 0000.0001) ># Time stepping parameters
(PID.TID 0000.0001) > &PARM03
(PID.TID 0000.0001) > nIter0=5184000,
(PID.TID 0000.0001) > nTimeSteps = 8,
(PID.TID 0000.0001) > deltaTmom  = 900.,
(PID.TID 0000.0001) > tauCD =     321428.,
(PID.TID 0000.0001) > deltaTtracer= 43200.,
(PID.TID 0000.0001) > deltaTClock = 43200.,
(PID.TID 0000.0001) > abEps = 0.1,
(PID.TID 0000.0001) > pChkptFreq = 216000.,
(PID.TID 0000.0001) > chkptFreq  = 216000.,
(PID.TID 0000.0001) >#dumpFreq   = 216000.,
(PID.TID 0000.0001) >#taveFreq   = 216000.,
(PID.TID 0000.0001) > monitorFreq= 86400.,
(PID.TID 0000.0001) > tauThetaClimRelax = 5184000.,
(PID.TID 0000.0001) > tauSaltClimRelax  = 7776000.,
(PID.TID 0000.0001) > periodicExternalForcing=.TRUE.,
(PID.TID 0000.0001) > externForcingPeriod=2592000.,
(PID.TID 0000.0001) > externForcingCycle=31104000.,
(PID.TID 0000.0001) > monitorFreq= 1.,
(PID.TID 0000.0001) > &
(PID.TID 0000.0001) >
(PID.TID 0000.0001) ># Gridding parameters
(PID.TID 0000.0001) > &PARM04
(PID.TID 0000.0001) > usingSphericalPolarGrid=.TRUE.,
(PID.TID 0000.0001) > delZ=  50., 70.,  100., 140., 190.,
(PID.TID 0000.0001) >       240., 290., 340., 390., 440.,
(PID.TID 0000.0001) >       490., 540., 590., 640., 690.,
(PID.TID 0000.0001) > ygOrigin=-90.,
(PID.TID 0000.0001) > delX=128*2.8125,
(PID.TID 0000.0001) > delY=64*2.8125,
(PID.TID 0000.0001) > &
(PID.TID 0000.0001) >
(PID.TID 0000.0001) ># Input datasets
(PID.TID 0000.0001) > &PARM05
(PID.TID 0000.0001) > bathyFile=      'bathy.bin',
(PID.TID 0000.0001) > hydrogThetaFile='lev_clim_temp.bin',
(PID.TID 0000.0001) > hydrogSaltFile= 'lev_clim_salt.bin',
(PID.TID 0000.0001) > zonalWindFile=  'tren_taux.bin',
(PID.TID 0000.0001) > meridWindFile=  'tren_tauy.bin',
(PID.TID 0000.0001) > thetaClimFile=  'lev_monthly_temp.bin',
(PID.TID 0000.0001) > saltClimFile=   'lev_monthly_salt.bin',
(PID.TID 0000.0001) > surfQnetFile=   'shi_qnet.bin',
(PID.TID 0000.0001) > EmPmRFile=      'shi_empmr_year.bin',
(PID.TID 0000.0001) > the_run_name=   'Tutorial Biogeo',
(PID.TID 0000.0001) > &
(PID.TID 0000.0001) 
(PID.TID 0000.0001)  INI_PARMS ; starts to read PARM01
(PID.TID 0000.0001)  INI_PARMS ; read PARM01 : OK
(PID.TID 0000.0001)  INI_PARMS ; starts to read PARM02
(PID.TID 0000.0001)  INI_PARMS ; read PARM02 : OK
(PID.TID 0000.0001)  INI_PARMS ; starts to read PARM03
(PID.TID 0000.0001)  INI_PARMS ; read PARM03 : OK
(PID.TID 0000.0001)  INI_PARMS ; starts to read PARM04
(PID.TID 0000.0001)  INI_PARMS ; read PARM04 : OK
(PID.TID 0000.0001)  INI_PARMS ; starts to read PARM05
(PID.TID 0000.0001)  INI_PARMS ; read PARM05 : OK
(PID.TID 0000.0001)  INI_PARMS: finished reading file "data"
(PID.TID 0000.0001)  PACKAGES_BOOT: opening data.pkg
(PID.TID 0000.0001)  OPEN_COPY_DATA_FILE: opening file data.pkg
(PID.TID 0000.0001) // =======================================================
(PID.TID 0000.0001) // Parameter file "data.pkg"
(PID.TID 0000.0001) // =======================================================
(PID.TID 0000.0001) ># Packages
(PID.TID 0000.0001) > &PACKAGES
(PID.TID 0000.0001) > useGMRedi=.TRUE.,
(PID.TID 0000.0001) >#useMNC=.TRUE.,
(PID.TID 0000.0001) > useDiagnostics=.TRUE.,
(PID.TID 0000.0001) > useSAL=.TRUE.,
(PID.TID 0000.0001) > &
(PID.TID 0000.0001) >
(PID.TID 0000.0001) 
(PID.TID 0000.0001)  PACKAGES_BOOT: finished reading data.pkg
(PID.TID 0000.0001)  PACKAGES_BOOT: On/Off package Summary
 --------  pkgs with a standard "usePKG" On/Off switch in "data.pkg":  --------
 pkg/gmredi               compiled   and   used ( useGMRedi                = T )
 pkg/cal                  compiled but not used ( useCAL                   = F )
 pkg/exf                  compiled but not used ( useEXF                   = F )
 pkg/diagnostics          compiled   and   used ( useDiagnostics           = T )
 pkg/mnc                  compiled but not used ( useMNC                   = F )
 pkg/sal                  compiled   and   used ( useSAL                   = T )
 -------- pkgs without standard "usePKG" On/Off switch in "data.pkg":  --------
 pkg/generic_advdiff      compiled   and   used ( useGAD                   = T )
 pkg/mom_common           compiled   and   used ( momStepping              = T )
 pkg/mom_vecinv           compiled but not used ( +vectorInvariantMomentum = F )
 pkg/mom_fluxform         compiled   and   used ( & not vectorInvariantMom = T )
 pkg/cd_code              compiled   and   used ( useCDscheme              = T )
 pkg/monitor              compiled   and   used ( monitorFreq > 0.         = T )
 pkg/timeave              compiled but not used ( taveFreq > 0.            = F )
 pkg/debug                compiled but not used ( debugMode                = F )
 pkg/rw                   compiled   and   used
 pkg/mdsio                compiled   and   used
(PID.TID 0000.0001)  PACKAGES_BOOT: End of package Summary
(PID.TID 0000.0001) 
(PID.TID 0000.0001)  GM_READPARMS: opening data.gmredi
(PID.TID 0000.0001)  OPEN_COPY_DATA_FILE: opening file data.gmredi
(PID.TID 0000.0001) // =======================================================
(PID.TID 0000.0001) // Parameter file "data.gmredi"
(PID.TID 0000.0001) // =======================================================
(PID.TID 0000.0001) ># from MOM
(PID.TID 0000.0001) ># GM_background_K: 	isopycnal diffusion coefficien
(PID.TID 0000.0001) ># GM_maxSlope:		max slope of isopycnals
(PID.TID 0000.0001) ># GM_Scrit:		transition for scaling diffusion coefficient
(PID.TID 0000.0001) ># GM_Sd:		half width scaling for diffusion coefficient
(PID.TID 0000.0001) ># real background diff:	horizontal diffusion
(PID.TID 0000.0001) >
(PID.TID 0000.0001) ># ifdef GM_VISBECK_VARIABLE_K, include following in GM_PARM01
(PID.TID 0000.0001) ># GM_Visbeck_alpha   = 0.,
(PID.TID 0000.0001) ># GM_Visbeck_length  = 2.e+5,
(PID.TID 0000.0001) ># GM_Visbeck_depth   = 1.e+3,
(PID.TID 0000.0001) ># GM_Visbeck_maxval_K= 2.5e+3,
(PID.TID 0000.0001) >
(PID.TID 0000.0001) > &GM_PARM01
(PID.TID 0000.0001) >  GM_background_K    = 1.e+3,
(PID.TID 0000.0001) >  GM_taper_scheme    = 'gkw91',
(PID.TID 0000.0001) >  GM_maxSlope        = 1.e-2,
(PID.TID 0000.0001) >  GM_Kmin_horiz      = 100.,
(PID.TID 0000.0001) >  GM_Scrit           = 4.e-3,
(PID.TID 0000.0001) >  GM_Sd              = 1.e-3,
(PID.TID 0000.0001) > &
(PID.TID 0000.0001) >
(PID.TID 0000.0001) >
(PID.TID 0000.0001) 
(PID.TID 0000.0001)  GM_READPARMS: finished reading data.gmredi
(PID.TID 0000.0001)  DIAGNOSTICS_READPARMS: opening data.diagnostics
(PID.TID 0000.0001)  OPEN_COPY_DATA_FILE: opening file data.diagnostics
(PID.TID 0000.0001) // =======================================================
(PID.TID 0000.0001) // Parameter file "data.diagnostics"
(PID.TID 0000.0001) // =======================================================
(PID.TID 0000.0001) ># Diagnostic Package Choices
(PID.TID 0000.0001) >#--------------------
(PID.TID 0000.0001) >#  dumpAtLast (logical): always write output at the end of simulation (default=F)
(PID.TID 0000.0001) >#  diag_mnc   (logical): write to NetCDF files (default=useMNC)
(PID.TID 0000.0001) >#--for each output-stream:
(PID.TID 0000.0001) >#  fileName(n) : prefix of the output file name (max 80c long) for outp.stream n
(PID.TID 0000.0001) >#  frequency(n):< 0 : write snap-shot output every |frequency| seconds
(PID.TID 0000.0001) >#               > 0 : write time-average output every frequency seconds
(PID.TID 0000.0001) >#  timePhase(n)     : write at time = timePhase + multiple of |frequency|
(PID.TID 0000.0001) >#    averagingFreq  : frequency (in s) for periodic averaging interval
(PID.TID 0000.0001) >#    averagingPhase : phase     (in s) for periodic averaging interval
(PID.TID 0000.0001) >#    repeatCycle    : number of averaging intervals in 1 cycle
(PID.TID 0000.0001) >#  levels(:,n) : list of levels to write to file (Notes: declared as REAL)
(PID.TID 0000.0001) >#                when this entry is missing, select all common levels of this list
(PID.TID 0000.0001) >#  fields(:,n) : list of selected diagnostics fields (8.c) in outp.stream n
(PID.TID 0000.0001) >#                (see "available_diagnostics.log" file for the full list of diags)
(PID.TID 0000.0001) >#  missing_value(n) : missing value for real-type fields in output file "n"
(PID.TID 0000.0001) >#  fileFlags(n)     : specific code (8c string) for output file "n"
(PID.TID 0000.0001) >#--------------------
(PID.TID 0000.0001) > &DIAGNOSTICS_LIST
(PID.TID 0000.0001) >  fields(1:10,1) = 'ETAN    ','ETANSQ  ','DETADT2 ','PHIBOT  ','PHIBOTSQ',
(PID.TID 0000.0001) >   levels(1,1) = 1.,
(PID.TID 0000.0001) >#  fileName(1) = 'surfDiag',
(PID.TID 0000.0001) >  frequency(1) = 432000.,
(PID.TID 0000.0001) >  frequency(1) = 172800.,
(PID.TID 0000.0001) >  fields(1:18,2) = 'UVEL    ','VVEL    ','WVEL    ','PHIHYD  ',
(PID.TID 0000.0001) >                   'UVELMASS','VVELMASS',
(PID.TID 0000.0001) >                   'UVELSQ  ','VVELSQ  ','UV_VEL_C','THETASQ ',
(PID.TID 0000.0001) >                   'THETA   ','UTHMASS ','VTHMASS ','WVELTH  ',
(PID.TID 0000.0001) >                   'SALT    ','USLTMASS','VSLTMASS','WVELSLT ',
(PID.TID 0000.0001) >#  fileName(2) = 'dynDiag',
(PID.TID 0000.0001) >  frequency(2) = 0.,
(PID.TID 0000.0001) >  fields(1:8,3)  = 'ADVx_TH ','ADVy_TH ','ADVr_TH ',
(PID.TID 0000.0001) >                   'DFxE_TH ','DFyE_TH ','DFrE_TH ',
(PID.TID 0000.0001) >                   'DFrI_TH ',
(PID.TID 0000.0001) >                   'ADVx_SLT',
(PID.TID 0000.0001) >#  fileName(3) = 'flxDiag',
(PID.TID 0000.0001) >  frequency(3) = 0.,
(PID.TID 0000.0001) >#
(PID.TID 0000.0001) >  fields(1,4) = 'PHIBOTfv',
(PID.TID 0000.0001) >  fileName(4) = 'PHIBOTfv',
(PID.TID 0000.0001) > frequency(4) = 86400.,
(PID.TID 0000.0001) >#
(PID.TID 0000.0001) >  fields(1,5) = 'PHLSAL  ',
(PID.TID 0000.0001) >  fileName(5) = 'PHLSAL',
(PID.TID 0000.0001) > frequency(5) = 86400.,
(PID.TID 0000.0001) >#
(PID.TID 0000.0001) >  fields(1,6) = 'SAL     ',
(PID.TID 0000.0001) >  fileName(6) = 'SAL',
(PID.TID 0000.0001) > frequency(6) = 86400.,
(PID.TID 0000.0001) >#
(PID.TID 0000.0001) >  fields(1,7) = 'SALptid0',
(PID.TID 0000.0001) >  fileName(7) = 'SALptid0',
(PID.TID 0000.0001) > frequency(7) = 86400.,
(PID.TID 0000.0001) >#
(PID.TID 0000.0001) >  fields(1,8) = 'SALptid1',
(PID.TID 0000.0001) >  fileName(8) = 'SALptid1',
(PID.TID 0000.0001) > frequency(8) = 86400.,
(PID.TID 0000.0001) > &
(PID.TID 0000.0001) >
(PID.TID 0000.0001) >#--------------------
(PID.TID 0000.0001) ># Parameter for Diagnostics of per level statistics:
(PID.TID 0000.0001) >#--------------------
(PID.TID 0000.0001) >#  diagSt_mnc (logical): write stat-diags to NetCDF files (default=diag_mnc)
(PID.TID 0000.0001) >#  diagSt_regMaskFile : file containing the region-mask to read-in
(PID.TID 0000.0001) >#  nSetRegMskFile   : number of region-mask sets within the region-mask file
(PID.TID 0000.0001) >#  set_regMask(i)   : region-mask set-index that identifies the region "i"
(PID.TID 0000.0001) >#  val_regMask(i)   : region "i" identifier value in the region mask
(PID.TID 0000.0001) >#--for each output-stream:
(PID.TID 0000.0001) >#  stat_fName(n) : prefix of the output file name (max 80c long) for outp.stream n
(PID.TID 0000.0001) >#  stat_freq(n):< 0 : write snap-shot output every |stat_freq| seconds
(PID.TID 0000.0001) >#               > 0 : write time-average output every stat_freq seconds
(PID.TID 0000.0001) >#  stat_phase(n)    : write at time = stat_phase + multiple of |stat_freq|
(PID.TID 0000.0001) >#  stat_region(:,n) : list of "regions" (default: 1 region only=global)
(PID.TID 0000.0001) >#  stat_fields(:,n) : list of selected diagnostics fields (8.c) in outp.stream n
(PID.TID 0000.0001) >#                (see "available_diagnostics.log" file for the full list of diags)
(PID.TID 0000.0001) >#--------------------
(PID.TID 0000.0001) > &DIAG_STATIS_PARMS
(PID.TID 0000.0001) >#- an example just to check the agreement with MONITOR output:
(PID.TID 0000.0001) >#stat_fields(1:5,1)  = 'ETAN    ','UVEL    ','VVEL    ','WVEL    ', 'THETA   ',
(PID.TID 0000.0001) ># stat_fName(1) = 'dynStDiag',
(PID.TID 0000.0001) >#  stat_freq(1) = -864000.,
(PID.TID 0000.0001) ># stat_phase(1) = 0.,
(PID.TID 0000.0001) > &
(PID.TID 0000.0001) >
(PID.TID 0000.0001) 
(PID.TID 0000.0001) S/R DIAGNOSTICS_READPARMS, read namelist "diagnostics_list": start
(PID.TID 0000.0001) S/R DIAGNOSTICS_READPARMS, read namelist "diagnostics_list": OK
(PID.TID 0000.0001) S/R DIAGNOSTICS_READPARMS, read namelist "DIAG_STATIS_PARMS": start
(PID.TID 0000.0001) S/R DIAGNOSTICS_READPARMS, read namelist "DIAG_STATIS_PARMS": OK
(PID.TID 0000.0001)  DIAGNOSTICS_READPARMS: global parameter summary:
(PID.TID 0000.0001)  dumpAtLast = /* always write time-ave diags at the end */
(PID.TID 0000.0001)                   F
(PID.TID 0000.0001)     ;
(PID.TID 0000.0001)  diag_mnc =   /* write NetCDF output files */
(PID.TID 0000.0001)                   F
(PID.TID 0000.0001)     ;
(PID.TID 0000.0001)  useMissingValue = /* put MissingValue where mask = 0 */
(PID.TID 0000.0001)                   F
(PID.TID 0000.0001)     ;
(PID.TID 0000.0001)  diagCG_maxIters = /* max number of iters in diag_cg2d */
(PID.TID 0000.0001)                    1000
(PID.TID 0000.0001)     ;
(PID.TID 0000.0001)  diagCG_resTarget = /* residual target for diag_cg2d */
(PID.TID 0000.0001)                 1.000000000000000E-13
(PID.TID 0000.0001)     ;
(PID.TID 0000.0001)  diagCG_pcOffDFac = /* preconditioner off-diagonal factor */
(PID.TID 0000.0001)                 9.611687812379854E-01
(PID.TID 0000.0001)     ;
(PID.TID 0000.0001) -----------------------------------------------------
(PID.TID 0000.0001)  DIAGNOSTICS_READPARMS: active diagnostics summary:
(PID.TID 0000.0001) -----------------------------------------------------
(PID.TID 0000.0001) Creating Output Stream: PHIBOTfv
(PID.TID 0000.0001) Output Frequency:      86400.000000 ; Phase:           0.000000
(PID.TID 0000.0001)  Averaging Freq.:      86400.000000 , Phase:           0.000000 , Cycle:   1
(PID.TID 0000.0001)  missing value: -9.990000000000E+02
(PID.TID 0000.0001)  Levels:    will be set later
(PID.TID 0000.0001)  Fields:    PHIBOTfv
(PID.TID 0000.0001) Creating Output Stream: PHLSAL
(PID.TID 0000.0001) Output Frequency:      86400.000000 ; Phase:           0.000000
(PID.TID 0000.0001)  Averaging Freq.:      86400.000000 , Phase:           0.000000 , Cycle:   1
(PID.TID 0000.0001)  missing value: -9.990000000000E+02
(PID.TID 0000.0001)  Levels:    will be set later
(PID.TID 0000.0001)  Fields:    PHLSAL
(PID.TID 0000.0001) Creating Output Stream: SAL
(PID.TID 0000.0001) Output Frequency:      86400.000000 ; Phase:           0.000000
(PID.TID 0000.0001)  Averaging Freq.:      86400.000000 , Phase:           0.000000 , Cycle:   1
(PID.TID 0000.0001)  missing value: -9.990000000000E+02
(PID.TID 0000.0001)  Levels:    will be set later
(PID.TID 0000.0001)  Fields:    SAL
(PID.TID 0000.0001) Creating Output Stream: SALptid0
(PID.TID 0000.0001) Output Frequency:      86400.000000 ; Phase:           0.000000
(PID.TID 0000.0001)  Averaging Freq.:      86400.000000 , Phase:           0.000000 , Cycle:   1
(PID.TID 0000.0001)  missing value: -9.990000000000E+02
(PID.TID 0000.0001)  Levels:    will be set later
(PID.TID 0000.0001)  Fields:    SALptid0
(PID.TID 0000.0001) Creating Output Stream: SALptid1
(PID.TID 0000.0001) Output Frequency:      86400.000000 ; Phase:           0.000000
(PID.TID 0000.0001)  Averaging Freq.:      86400.000000 , Phase:           0.000000 , Cycle:   1
(PID.TID 0000.0001)  missing value: -9.990000000000E+02
(PID.TID 0000.0001)  Levels:    will be set later
(PID.TID 0000.0001)  Fields:    SALptid1
(PID.TID 0000.0001) -----------------------------------------------------
(PID.TID 0000.0001)  DIAGNOSTICS_READPARMS: statistics diags. summary:
(PID.TID 0000.0001) -----------------------------------------------------
(PID.TID 0000.0001) 
(PID.TID 0000.0001) SAL_READPARMS: opening data.sal
(PID.TID 0000.0001)  OPEN_COPY_DATA_FILE: opening file data.sal
(PID.TID 0000.0001) // =======================================================
(PID.TID 0000.0001) // Parameter file "data.sal"
(PID.TID 0000.0001) // =======================================================
(PID.TID 0000.0001) > &SAL_PARM01
(PID.TID 0000.0001) > sal_LoveFile= 'Load_Love2_CM.dat',
(PID.TID 0000.0001) > sal_refFile= 'PHIBOTfv_ann.bin',
(PID.TID 0000.0001) >#sal_diagIter=1,
(PID.TID 0000.0001) >#sal_cilmIter=1,
(PID.TID 0000.0001) > sal_startTime=0.,
(PID.TID 0000.0001) > sal_maskLand=.TRUE.,
(PID.TID 0000.0001) ># default is nearest interpolation to Gaussian grid
(PID.TID 0000.0001) ># sal_model2llFile= ' ',
(PID.TID 0000.0001) ># bilinear interpolation from Gaussian grid to model grid
(PID.TID 0000.0001) > sal_ll2modelMethod=1,
(PID.TID 0000.0001) ># Gaussian grid origin
(PID.TID 0000.0001) > sal_lon_0= 1.40625,
(PID.TID 0000.0001) > sal_loadSaveCfg=.TRUE.,
(PID.TID 0000.0001) > /
(PID.TID 0000.0001) 
(PID.TID 0000.0001) SAL_READPARMS: finished reading data.sal
(PID.TID 0000.0001) SET_PARMS: done
(PID.TID 0000.0001) Enter INI_VERTICAL_GRID: setInterFDr=    T ; setCenterDr=    F
(PID.TID 0000.0001) %MON XC_max                       =   3.5859375000000E+02
(PID.TID 0000.0001) %MON XC_min                       =   1.4062500000000E+00
(PID.TID 0000.0001) %MON XC_mean                      =   1.8000000000000E+02
(PID.TID 0000.0001) %MON XC_sd                        =   1.0391987692599E+02
(PID.TID 0000.0001) %MON XG_max                       =   3.5718750000000E+02
(PID.TID 0000.0001) %MON XG_min                       =   0.0000000000000E+00
(PID.TID 0000.0001) %MON XG_mean                      =   1.7859375000000E+02
(PID.TID 0000.0001) %MON XG_sd                        =   1.0391987692599E+02
(PID.TID 0000.0001) %MON DXC_max                      =   3.1259246843155E+05
(PID.TID 0000.0001) %MON DXC_min                      =   7.6737143816223E+03
(PID.TID 0000.0001) %MON DXC_mean                     =   1.9908248704234E+05
(PID.TID 0000.0001) %MON DXC_sd                       =   9.6190602240067E+04
(PID.TID 0000.0001) %MON DXF_max                      =   3.1259246843155E+05
(PID.TID 0000.0001) %MON DXF_min                      =   7.6737143816223E+03
(PID.TID 0000.0001) %MON DXF_mean                     =   1.9908248704234E+05
(PID.TID 0000.0001) %MON DXF_sd                       =   9.6190602240067E+04
(PID.TID 0000.0001) %MON DXG_max                      =   3.1268664380261E+05
(PID.TID 0000.0001) %MON DXG_min                      =   0.0000000000000E+00
(PID.TID 0000.0001) %MON DXG_mean                     =   1.9902252711933E+05
(PID.TID 0000.0001) %MON DXG_sd                       =   9.6314600686012E+04
(PID.TID 0000.0001) %MON DXV_max                      =   3.1268664380261E+05
(PID.TID 0000.0001) %MON DXV_min                      =   0.0000000000000E+00
(PID.TID 0000.0001) %MON DXV_mean                     =   1.9902252711933E+05
(PID.TID 0000.0001) %MON DXV_sd                       =   9.6314600686012E+04
(PID.TID 0000.0001) %MON YC_max                       =   8.8593750000000E+01
(PID.TID 0000.0001) %MON YC_min                       =  -8.8593750000000E+01
(PID.TID 0000.0001) %MON YC_mean                      =   0.0000000000000E+00
(PID.TID 0000.0001) %MON YC_sd                        =   5.1955180880375E+01
(PID.TID 0000.0001) %MON YG_max                       =   8.7187500000000E+01
(PID.TID 0000.0001) %MON YG_min                       =  -9.0000000000000E+01
(PID.TID 0000.0001) %MON YG_mean                      =  -1.4062500000000E+00
(PID.TID 0000.0001) %MON YG_sd                        =   5.1955180880375E+01
(PID.TID 0000.0001) %MON DYC_max                      =   3.1268664380261E+05
(PID.TID 0000.0001) %MON DYC_min                      =   3.1268664380261E+05
(PID.TID 0000.0001) %MON DYC_mean                     =   3.1268664380260E+05
(PID.TID 0000.0001) %MON DYC_sd                       =   4.3655745685101E-09
(PID.TID 0000.0001) %MON DYF_max                      =   3.1268664380261E+05
(PID.TID 0000.0001) %MON DYF_min                      =   3.1268664380261E+05
(PID.TID 0000.0001) %MON DYF_mean                     =   3.1268664380260E+05
(PID.TID 0000.0001) %MON DYF_sd                       =   4.3655745685101E-09
(PID.TID 0000.0001) %MON DYG_max                      =   3.1268664380261E+05
(PID.TID 0000.0001) %MON DYG_min                      =   3.1268664380261E+05
(PID.TID 0000.0001) %MON DYG_mean                     =   3.1268664380260E+05
(PID.TID 0000.0001) %MON DYG_sd                       =   4.3655745685101E-09
(PID.TID 0000.0001) %MON DYU_max                      =   3.1268664380261E+05
(PID.TID 0000.0001) %MON DYU_min                      =   3.1268664380261E+05
(PID.TID 0000.0001) %MON DYU_mean                     =   3.1268664380260E+05
(PID.TID 0000.0001) %MON DYU_sd                       =   4.3655745685101E-09
(PID.TID 0000.0001) %MON RA_max                       =   9.7733676797555E+10
(PID.TID 0000.0001) %MON RA_min                       =   2.3992270990190E+09
(PID.TID 0000.0001) %MON RA_mean                      =   6.2244185031956E+10
(PID.TID 0000.0001) %MON RA_sd                        =   3.0074496923945E+10
(PID.TID 0000.0001) %MON RAW_max                      =   9.7733676797555E+10
(PID.TID 0000.0001) %MON RAW_min                      =   2.3992270990190E+09
(PID.TID 0000.0001) %MON RAW_mean                     =   6.2244185031956E+10
(PID.TID 0000.0001) %MON RAW_sd                       =   3.0074496923945E+10
(PID.TID 0000.0001) %MON RAS_max                      =   9.7763121221868E+10
(PID.TID 0000.0001) %MON RAS_min                      =   0.0000000000000E+00
(PID.TID 0000.0001) %MON RAS_mean                     =   6.2225438247155E+10
(PID.TID 0000.0001) %MON RAS_sd                       =   3.0113265689232E+10
(PID.TID 0000.0001) %MON RAZ_max                      =   9.7763121221868E+10
(PID.TID 0000.0001) %MON RAZ_min                      =   0.0000000000000E+00
(PID.TID 0000.0001) %MON RAZ_mean                     =   6.2225438247155E+10
(PID.TID 0000.0001) %MON RAZ_sd                       =   3.0113265689232E+10
(PID.TID 0000.0001) %MON AngleCS_max                  =   1.0000000000000E+00
(PID.TID 0000.0001) %MON AngleCS_min                  =   1.0000000000000E+00
(PID.TID 0000.0001) %MON AngleCS_mean                 =   1.0000000000000E+00
(PID.TID 0000.0001) %MON AngleCS_sd                   =   0.0000000000000E+00
(PID.TID 0000.0001) %MON AngleSN_max                  =   0.0000000000000E+00
(PID.TID 0000.0001) %MON AngleSN_min                  =   0.0000000000000E+00
(PID.TID 0000.0001) %MON AngleSN_mean                 =   0.0000000000000E+00
(PID.TID 0000.0001) %MON AngleSN_sd                   =   0.0000000000000E+00
(PID.TID 0000.0001)  MDS_READ_FIELD: opening global file: bathy.bin
(PID.TID 0000.0001) // =======================================================
(PID.TID 0000.0001) // Field Model R_low (ini_masks_etc)
(PID.TID 0000.0001) // CMIN =         -5.200000000000000E+03
(PID.TID 0000.0001) // CMAX =         -5.000000000000000E+01
(PID.TID 0000.0001) // CINT =          1.907407407407407E+02
(PID.TID 0000.0001) // SYMBOLS (CMIN->CMAX): -abcdefghijklmnopqrstuvwxyz+
(PID.TID 0000.0001) //                  0.0: .
(PID.TID 0000.0001) // RANGE I (Lo:Hi:Step):(    -3:   132:     1)
(PID.TID 0000.0001) // RANGE J (Lo:Hi:Step):(    68:    -3:    -1)
(PID.TID 0000.0001) // RANGE K (Lo:Hi:Step):(   1:   1:   1)
(PID.TID 0000.0001) // =======================================================
(PID.TID 0000.0001) K =   1
(PID.TID 0000.0001) //                I=6       I=16      I=26      I=36      I=46      I=56      I=66      I=68      I=78      I=88      I=98      I=108     I=118     I=128
(PID.TID 0000.0001) // |--J--|321012345|789012345|789012345|789012345|789012345|789012345|789012345|781234567|901234567|901234567|901234567|901234567|901234567|901234567|9012
(PID.TID 0000.0001) //     68 ................................................................................................................................................
(PID.TID 0000.0001) //     67 ................................................................................................................................................
(PID.TID 0000.0001) //     66 ................................................................................................................................................
(PID.TID 0000.0001) //     65 ................................................................................................................................................
(PID.TID 0000.0001) //     64 ................................................................................................................................................
(PID.TID 0000.0001) //     63 ................................................................................................................................................
(PID.TID 0000.0001) //     62 ................................................................................................................................................
(PID.TID 0000.0001) //     61 +zsnovwy++...+zzzzzz++++...............................................................................................................++zsnovwy
(PID.TID 0000.0001) //     60 +zrmmnot.....+zzzzzzzzz+.........................................................................................y....................zz+zrmmnot
(PID.TID 0000.0001) //     59 omjjklnoqyz++zyzzzzzzzz.........................................................................................yxwvvyy..............zzromjjklno
(PID.TID 0000.0001) //     58 sponmlmoqwzyzzzzzzzz++.............................................................................................wrtxz............zytssponmlmo
(PID.TID 0000.0001) //     57 rqmmmkmmz............................................................................................................tvz............xwurrqmmmkmm
(PID.TID 0000.0001) //     56 vqjmmuyz..............................................................................................................yx........yyyyy..zvqjmmuyz
(PID.TID 0000.0001) //     55 xwrrux..............................................................++......++.......................................+yuu.....wonrwyzzzyxwrrux..
(PID.TID 0000.0001) //     54 wyz++............................................................ymnz+++.ymnz+++......................................wmkkr..qmmotsqooruwyz++...
(PID.TID 0000.0001) //     53 v...++.................................................zzzz...omsjjjjm++sjjjjm+++.....zjghl...........................zojjjlkkloronmpvxtv...++..
(PID.TID 0000.0001) //     52 ....++................................................+xxyy...ggijjljjmpijjljjmpz.++tdeffhjm............................zmjiijlqnljlqtpo....++..
(PID.TID 0000.0001) //     51 .......................................................xvvx..ddfdhjsqmpqdhjsqmpqdbcddddefghjlz..........................zylgghhikkjhigqy........
(PID.TID 0000.0001) //     50 z+.....................................................+uutw---aaaa-----aaa------aaaabddefghjnq..........................zvogdefglkgfddpz+......
(PID.TID 0000.0001) //     49 dg+....................................................roqja--------------------------abddefhmmx..........................+whddehlnjdddddg+.....
(PID.TID 0000.0001) //     48 oxy.....................................................va------a-------a--------------addefgjlx.....................++nj+wfddfgjnmkgeddoxy.....
(PID.TID 0000.0001) //     47 t......................................................a------a----------------------aaaddefgiks...................+qfbaaahebddgoqnhfa--t.......
(PID.TID 0000.0001) //     46 v.....................................................z------d--a-d-----a-d----------------abddg..................lfdda-----bdhksrqhdacev.......
(PID.TID 0000.0001) //     45 g.....................................................b-----fb---cdhfe---cdhfe-------------aadddk................oeaaddb-abcehlnmkgcabjdg.......
(PID.TID 0000.0001) //     44 .................................................+.vgs-----ci----aaa-----aaa--------------bddddefu..............xf--ddb---adhlkihjd-bfgi........
(PID.TID 0000.0001) //     43 ................................................+ywfdng-------------a-a-----a-a--------abddddddefhr............+vd--ab----afkjgccda-deju........
(PID.TID 0000.0001) //     42 ...............................................+zveddhna-------------dde-----ddedbba----addddddeffh............+vd-------acgifaa-aaadis.........
(PID.TID 0000.0001) //     41 .........................op.....................qdeeddn---a--a--------dd------ddheddea---abddddeefgizw.......t+++n-------adifd-----dem..........
(PID.TID 0000.0001) //     40 .........................ljn.................zom----ddil---aac---fkic-df-fkic-dfdddgja------ddddegghjl.......tmv.uq------adifa--bbadfs..........
(PID.TID 0000.0001) //     39 ........................zhijj.....ppq.......rjmxa---bdfiea----acaigefghfaigefghf---cda-------adefggijjl......jkrvt.vnu--adejfa-aadehjm..........
(PID.TID 0000.0001) //     38 .......................nhggghr...llmn+.....vngt.g--aadfib---------ea---a--ea---aa---------bbbaddefggjhkjiv.....wphiggrna-agifaa---cljn..........
(PID.TID 0000.0001) //     37 ....................wttlheefes..+jjkmu+....oggx.x---adig-----addd-------d----------------bbbdddddeefghjkiggh...ojizsjssjbadfhca----bdj..........
(PID.TID 0000.0001) //     36 ......................qghfdddpq.+hiipoz....rrt...--adiige----gdefd-----cfd-----caebb-dd--abbdddddeeghikjhghhjy.vt......mgddddhfbaa-adh..........
(PID.TID 0000.0001) //     35 ......................adgieddkos+gghksy....tt....--gdimmnheeddcdfd---a--fd---a--ackfbaabddddddddefffgghkjihhjqt.........+sfeddfhgfefhdd+........
(PID.TID 0000.0001) //     34 l+owgp+..............laddfiighojeefght........wjlldfdelfedhkigddddd--a--ddd--a---aehdddddddddddddeeggghjjjjlqolm..........zjfedgkhfegdddl+owgp+.
(PID.TID 0000.0001) //     33 caaddgn.............jcadddfkggoedddged.........zxxifefkeddhnmgddddd-----ddd-------afddeddddddddddefgghijjkmqomkv...........zfeefkkhhddcccaaddgn.
(PID.TID 0000.0001) //     32 fdaddfl............kdbadddeiigjddddfddd.........yy..zomsrqjqpjdefeda----feda-----aaadddddddddddddeeefghjjjjkqnr..............kjfeffddfgifdaddfl.
(PID.TID 0000.0001) //     31 heddddes..........vgdddsggfhiidaaddfdddd........xxv.....t.srroljiea-----iea------faaaadddddddddddeeefijiihhhiii................nea--adgkheddddes
(PID.TID 0000.0001) //     30 hdde--di..........rgdfehqiggjtaaaddfaaa-fx...zxxxxw++....mj.spjhdaad---adaad---adge-aaaadefddddddeefikiggggfffe................zd---adhlhdde--di
(PID.TID 0000.0001) //     29 heda--aey.........rigfffhyjjjlaaadddaaaa-ailnmxxxx++++.+..qoqqklfdddfffdfdddfffdfhka-acbddifdefgggfikjheeggfeddl...............vb---aehlheda--ae
(PID.TID 0000.0001) //     36 ......................qghfdddpq.+hiipoz....rrt...--adiige----gdefd-----cfd-----caebb-dd--abbdddddeeghikjhghhjy.vt......mgddddhfbaa-adh..........
(PID.TID 0000.0001) //     35 ......................adgieddkos+gghksy....tt....--gdimmnheeddcdfd---a--fd---a--ackfbaabddddddddefffgghkjihhjqt.........+sfeddfhgfefhdd+........
(PID.TID 0000.0001) //     34 l+owgp+..............laddfiighojeefght........wjlldfdelfedhkigddddd--a--ddd--a---aehdddddddddddddeeggghjjjjlqolm..........zjfedgkhfegdddl+owgp+.
(PID.TID 0000.0001) //     33 caaddgn.............jcadddfkggoedddged.........zxxifefkeddhnmgddddd-----ddd-------afddeddddddddddefgghijjkmqomkv...........zfeefkkhhddcccaaddgn.
(PID.TID 0000.0001) //     32 fdaddfl............kdbadddeiigjddddfddd.........yy..zomsrqjqpjdefeda----feda-----aaadddddddddddddeeefghjjjjkqnr..............kjfeffddfgifdaddfl.
(PID.TID 0000.0001) //     31 heddddes..........vgdddsggfhiidaaddfdddd........xxv.....t.srroljiea-----iea------faaaadddddddddddeeefijiihhhiii................nea--adgkheddddes
(PID.TID 0000.0001) //     30 hdde--di..........rgdfehqiggjtaaaddfaaa-fx...zxxxxw++....mj.spjhdaad---adaad---adge-aaaadefddddddeefikiggggfffe................zd---adhlhdde--di
(PID.TID 0000.0001) //     29 heda--aey.........rigfffhyjjjlaaadddaaaa-ailnmxxxx++++.+..qoqqklfdddfffdfdddfffdfhka-acbddifdefgggfikjheeggfeddl...............vb---aehlheda--ae
(PID.TID 0000.0001) //     28 hfd---afy.........+kj.ddfojkhfa-addg--d-c-ddd-jx++.....rjggpmigqkllopidckllopidc-dlaaadddeffffggghijkigefghgfddd..............+ec---ddjjhfd---af
(PID.TID 0000.0001) //     27 heda--ag..........zm..edfxikiddaaafla-a----dedr+........vvgklgftkllpqqkckllpqqkc--dddefornkfffgghhjkjhgfhhgeddddi.............rdda--dfjkheda--ag
(PID.TID 0000.0001) //     26 heda---h..........r+..ddjiimieddaadl-a-----dsw+..........yqnlkkjnlnvsqibnlnvsqib--ddddiffkkjgfghhhjkjhgfeefedddgfd............+fdb--afilheda---h
(PID.TID 0000.0001) //     25 jdd--bkn.........mmz.ndfffimlfddddejda---abfw.............zpvsrsnlljrs--nlljrs---addddddedggggghhijkiggfffffeeggdde...........nfea--adfljdd--bkn
(PID.TID 0000.0001) //     24 fd---gngu.......zkjx.fddddegkiffdddjd---aajm..............zppsotngdhsp--ngdhsp----bdddddddefhihijjljjhghggggghjedff..........pheb---ddgkfd---gng
(PID.TID 0000.0001) //     23 fedackddm.......tfejsd---degikiffeefdccfba-m..............+gmtmomidiqi--midiqi-----dddddifeefgghijklmkkjiiihihgffff........zoledcaabdfhkfedackdd
(PID.TID 0000.0001) //     22 heddhaadjz.....uqbcnnfabdfddffjifffolnljda--+.............zdntmnmngiq---mngiq------ddddddeeeeefghijlmkjihhhihggfeev........ohgfqihdddfilheddhaad
(PID.TID 0000.0001) //     21 fefgebabgq.....jpabrofdfiddddfilihjleeonb-abn....++.......sdluotmqjll---mqjll------dddddddddeffghhikmjjihhhihggfef+.......shgfflgiddfhkkfefgebab
(PID.TID 0000.0001) //     20 gggdb--addw.zgegi-allghkdddddegllhhgfeddc--kl+vhddnw......dccotrr.tnd--ar.tnd--aa--------ddddffffhhjmjiiiiihgggfff.......xfbbbdddffggjkjgggdb--a
(PID.TID 0000.0001) //     19 jjfda--addddgkefdadkknkfd-adeegnkihhhgfddddddda------v...kddadsvv..via-bv..via-bb--d------abddddeegjmjgfgijihggffp......zfa-aaaddddfgklljjfda--a
(PID.TID 0000.0001) //     18 hgddca-dddaagndddflnkjheb-adefglllllkjhfeeddddba-----df..gddbdfux..olifdx..olifdba-ddd------adddeehkmihfefijihgggy......h------abddfhkljhgddca-d
(PID.TID 0000.0001) //     17 ggffdddddaabca-dgnomnmjfcbddfgikkklklljhgggedddddddddddn+jddbddr..yxxxqk..yxxxqk--addd------adddfghkljigeeefgikii+...++p---aaa--adddgjkjggffdddd
(PID.TID 0000.0001) //     16 lifeddfedccb--aglnpqpnmgddfpunjjjjjjjklkjihgffeddddeefdjqgdcbde..tsojdaa.tsojdaa-aadddbaaaaadddefgjlljhgeeeeffhjk....++j---------addfgkllifeddfe
(PID.TID 0000.0001) //     15 lljhgghgdcddb-dfdefffffedeou.xnmjjgghijjjkkjjhgggghikjgggldddekzxxvvga--xxvvga--aaaabcddddddddeghiklkihfedddddefi....+zsqmb-afaaabddffhjlljhgghg
(PID.TID 0000.0001) //     14 jnonnkhikkjjhfc-bfmlhfeedddglxytmjdefhhhhhiihgfedghikljifeddfhjxyydba--ayydba--aaabcdddefhfddefhjmljhhfedddddddfgj..+zzsqpnnqjigifffdefhjnonnkhi
(PID.TID 0000.0001) //     13 ijnomnlgddfeeb---gjfeddddddhgmsrjgddeefgggggedddddefgjlmghgfjgkusaa---aasaa---aabcddghiiijmljihimljhhgeddddaadddfjlllkjihggjkmwvjddfddefijnomnlg
(PID.TID 0000.0001) //     12 fhifec----bb------------abddlnnrsiddddeedddddddddddddfhjkkiijfd----aaddc---aaddccdegijlnkihjihggggdddddccdddddddddfihggggggkkjkkjjodddeffhifec--
(PID.TID 0000.0001) //     11 a----------a-----------abbdddgmmqsjeeededddeddeddddddeeghkllnkjecacddeffcacddeffgggikmlkihgeddedbaddaaaaaaaaabbbddeghhgilolvxomnllkefgdaa-------
(PID.TID 0000.0001) //     10 ----dcaa-aaaaaaaabbdebcbddfghhjjmmjjjkprohiijkhhgggghhhggjjlommnnmijijklnmijijklnmmllkjggeddddaaaaaaaddaaabdddddefgill..zqjkigddddddbaa-----dcaa
(PID.TID 0000.0001) //      9 adddkhefjfdddddhfdekpy..xpnnpponxxyzz........zyz+y...zzxxwsmmmmmkjjjmmmkkjjjmmmkkhgggfdeeeddddddddddddddddddddeeghpy...yxnhgedddddddbaaaadddkhef
(PID.TID 0000.0001) //      8 gnlmkmopvtlkklv..............yx.............................zrppmljjjgffmljjjgfffggeeddddddddefhhigghffeddffilloxy....zyxoihgggdddddddddgnlmkmop
(PID.TID 0000.0001) //      7 .................................................................xsrvshf.xsrvshfeeeeeeeeeeffgjmmnpvwvvwy++yyyyxxz......ywttqmigghggfflyz........
(PID.TID 0000.0001) //      6 ...............................................................yyyyyyupnyyyyyupnkihhggghvyyy+.........................+yyyyyyyyxxxyy............
(PID.TID 0000.0001) //      5 ................................................................xxyyxxyyxxyyxxyyyyyzz.................................++zz..zyxy................
(PID.TID 0000.0001) //      4 ................................................................................................................................................
(PID.TID 0000.0001) //      3 ................................................................................................................................................
(PID.TID 0000.0001) //      2 ................................................................................................................................................
(PID.TID 0000.0001) //      1 ................................................................................................................................................
(PID.TID 0000.0001) //      0 ................................................................................................................................................
(PID.TID 0000.0001) //     -1 ................................................................................................................................................
(PID.TID 0000.0001) //     -2 ................................................................................................................................................
(PID.TID 0000.0001) //     -3 ................................................................................................................................................
(PID.TID 0000.0001) // =======================================================
(PID.TID 0000.0001) // END OF FIELD                                          =
(PID.TID 0000.0001) // =======================================================
(PID.TID 0000.0001) 
(PID.TID 0000.0001) // =======================================================
(PID.TID 0000.0001) // Field Model Ro_surf (ini_masks_etc)
(PID.TID 0000.0001) // CMIN =          1.000000000000000E+32
(PID.TID 0000.0001) // CMAX =         -1.000000000000000E+32
(PID.TID 0000.0001) // CINT =          0.000000000000000E+00
(PID.TID 0000.0001) // SYMBOLS (CMIN->CMAX): -abcdefghijklmnopqrstuvwxyz+
(PID.TID 0000.0001) //                  0.0: .
(PID.TID 0000.0001) // RANGE I (Lo:Hi:Step):(    -3:   132:     1)
(PID.TID 0000.0001) // RANGE J (Lo:Hi:Step):(    68:    -3:    -1)
(PID.TID 0000.0001) // RANGE K (Lo:Hi:Step):(   1:   1:   1)
(PID.TID 0000.0001) // =======================================================
(PID.TID 0000.0001) // =======================================================
(PID.TID 0000.0001) // END OF FIELD                                          =
(PID.TID 0000.0001) // =======================================================
(PID.TID 0000.0001) 
(PID.TID 0000.0001) // =======================================================
(PID.TID 0000.0001) // Field hFacC at iteration          0
(PID.TID 0000.0001) // CMIN =          1.000000000000000E+00
(PID.TID 0000.0001) // CMAX =          1.000000000000000E+00
(PID.TID 0000.0001) // CINT =          0.000000000000000E+00
(PID.TID 0000.0001) // SYMBOLS (CMIN->CMAX): -abcdefghijklmnopqrstuvwxyz+
(PID.TID 0000.0001) //                  0.0: .
(PID.TID 0000.0001) // RANGE I (Lo:Hi:Step):(    -3:   132:     1)
(PID.TID 0000.0001) // RANGE J (Lo:Hi:Step):(    68:    -3:    -1)
(PID.TID 0000.0001) // RANGE K (Lo:Hi:Step):(   1:   1:   1)
(PID.TID 0000.0001) // =======================================================
(PID.TID 0000.0001) // =======================================================
(PID.TID 0000.0001) // END OF FIELD                                          =
(PID.TID 0000.0001) // =======================================================
(PID.TID 0000.0001) 
(PID.TID 0000.0001) // =======================================================
(PID.TID 0000.0001) // Field hFacW at iteration          0
(PID.TID 0000.0001) // CMIN =          1.000000000000000E+00
(PID.TID 0000.0001) // CMAX =          1.000000000000000E+00
(PID.TID 0000.0001) // CINT =          0.000000000000000E+00
(PID.TID 0000.0001) // SYMBOLS (CMIN->CMAX): -abcdefghijklmnopqrstuvwxyz+
(PID.TID 0000.0001) //                  0.0: .
(PID.TID 0000.0001) // RANGE I (Lo:Hi:Step):(    -3:   132:     1)
(PID.TID 0000.0001) // RANGE J (Lo:Hi:Step):(    68:    -3:    -1)
(PID.TID 0000.0001) // RANGE K (Lo:Hi:Step):(   1:   1:   1)
(PID.TID 0000.0001) // =======================================================
(PID.TID 0000.0001) // =======================================================
(PID.TID 0000.0001) // END OF FIELD                                          =
(PID.TID 0000.0001) // =======================================================
(PID.TID 0000.0001) 
(PID.TID 0000.0001) // =======================================================
(PID.TID 0000.0001) // Field hFacS at iteration          0
(PID.TID 0000.0001) // CMIN =          1.000000000000000E+00
(PID.TID 0000.0001) // CMAX =          1.000000000000000E+00
(PID.TID 0000.0001) // CINT =          0.000000000000000E+00
(PID.TID 0000.0001) // SYMBOLS (CMIN->CMAX): -abcdefghijklmnopqrstuvwxyz+
(PID.TID 0000.0001) //                  0.0: .
(PID.TID 0000.0001) // RANGE I (Lo:Hi:Step):(    -3:   132:     1)
(PID.TID 0000.0001) // RANGE J (Lo:Hi:Step):(    68:    -3:    -1)
(PID.TID 0000.0001) // RANGE K (Lo:Hi:Step):(   1:   1:   1)
(PID.TID 0000.0001) // =======================================================
(PID.TID 0000.0001) // =======================================================
(PID.TID 0000.0001) // END OF FIELD                                          =
(PID.TID 0000.0001) // =======================================================
(PID.TID 0000.0001) 
(PID.TID 0000.0001) GAD_INIT_FIXED: GAD_OlMinSize=  1  0  1
(PID.TID 0000.0001) 
(PID.TID 0000.0001) // ===================================
(PID.TID 0000.0001) // GAD parameters :
(PID.TID 0000.0001) // ===================================
(PID.TID 0000.0001) tempAdvScheme =   /* Temp. Horiz.Advection scheme selector */
(PID.TID 0000.0001)                       2
(PID.TID 0000.0001)     ;
(PID.TID 0000.0001) tempVertAdvScheme =   /* Temp. Vert. Advection scheme selector */
(PID.TID 0000.0001)                       2
(PID.TID 0000.0001)     ;
(PID.TID 0000.0001) tempMultiDimAdvec =   /* use Muti-Dim Advec method for Temp */
(PID.TID 0000.0001)                   F
(PID.TID 0000.0001)     ;
(PID.TID 0000.0001) tempSOM_Advection = /* use 2nd Order Moment Advection for Temp */
(PID.TID 0000.0001)                   F
(PID.TID 0000.0001)     ;
(PID.TID 0000.0001) AdamsBashforthGt = /* apply Adams-Bashforth extrapolation on Gt */
(PID.TID 0000.0001)                   T
(PID.TID 0000.0001)     ;
(PID.TID 0000.0001) AdamsBashforth_T = /* apply Adams-Bashforth extrapolation on Temp */
(PID.TID 0000.0001)                   F
(PID.TID 0000.0001)     ;
(PID.TID 0000.0001) saltAdvScheme =   /* Salt. Horiz.advection scheme selector */
(PID.TID 0000.0001)                       2
(PID.TID 0000.0001)     ;
(PID.TID 0000.0001) saltVertAdvScheme =   /* Salt. Vert. Advection scheme selector */
(PID.TID 0000.0001)                       2
(PID.TID 0000.0001)     ;
(PID.TID 0000.0001) saltMultiDimAdvec =   /* use Muti-Dim Advec method for Salt */
(PID.TID 0000.0001)                   F
(PID.TID 0000.0001)     ;
(PID.TID 0000.0001) saltSOM_Advection = /* use 2nd Order Moment Advection for Salt */
(PID.TID 0000.0001)                   F
(PID.TID 0000.0001)     ;
(PID.TID 0000.0001) AdamsBashforthGs = /* apply Adams-Bashforth extrapolation on Gs */
(PID.TID 0000.0001)                   T
(PID.TID 0000.0001)     ;
(PID.TID 0000.0001) AdamsBashforth_S = /* apply Adams-Bashforth extrapolation on Salt */
(PID.TID 0000.0001)                   F
(PID.TID 0000.0001)     ;
(PID.TID 0000.0001) // ===================================
(PID.TID 0000.0001) SAL_INIT_FIXED: load Love numbers:
(PID.TID 0000.0001)    n                 h                 k
(PID.TID 0000.0001)     0   0.000000000      -1.000000000
(PID.TID 0000.0001)     1  -1.285877758      -1.000000000
(PID.TID 0000.0001)     2 -0.9915810331     -0.3054020195
(PID.TID 0000.0001)     3  -1.050767745     -0.1960294041
(PID.TID 0000.0001)     4  -1.053393012     -0.1336652689
(PID.TID 0000.0001)     5  -1.086317605     -0.1047066267
(PID.TID 0000.0001)     6  -1.143860336     -0.9033564429E-01
(PID.TID 0000.0001)     7  -1.212408459     -0.8206984804E-01
(PID.TID 0000.0001)     8  -1.283943275     -0.7655494644E-01
(PID.TID 0000.0001)     9  -1.354734845     -0.7243844815E-01
(PID.TID 0000.0001)    10  -1.423282851     -0.6913401466E-01
(PID.TID 0000.0001)    11  -1.489094554     -0.6635869819E-01
(PID.TID 0000.0001)    12  -1.552074997     -0.6395689877E-01
(PID.TID 0000.0001)    13  -1.612273740     -0.6183296641E-01
(PID.TID 0000.0001)    14  -1.669763369     -0.5992172201E-01
(PID.TID 0000.0001)    15  -1.724635488     -0.5817772516E-01
(PID.TID 0000.0001)    16  -1.776963521     -0.5656704205E-01
(PID.TID 0000.0001)    17  -1.826825601     -0.5506474110E-01
(PID.TID 0000.0001)    18  -1.874298467     -0.5365205058E-01
(PID.TID 0000.0001)    19  -1.919461416     -0.5231479422E-01
(PID.TID 0000.0001)    20  -1.962393632     -0.5104204279E-01
(PID.TID 0000.0001)    21  -2.003182253     -0.4982562670E-01
(PID.TID 0000.0001)    22  -2.041915786     -0.4865919131E-01
(PID.TID 0000.0001)    23  -2.078680486     -0.4753764652E-01
(PID.TID 0000.0001)    24  -2.113573061     -0.4645728556E-01
(PID.TID 0000.0001)    25  -2.146680270     -0.4541483359E-01
(PID.TID 0000.0001)    26  -2.178105661     -0.4440818528E-01
(PID.TID 0000.0001)    27  -2.207927152     -0.4343487603E-01
(PID.TID 0000.0001)    28  -2.236242846     -0.4249347823E-01
(PID.TID 0000.0001)    29  -2.263132641     -0.4158232061E-01
(PID.TID 0000.0001)    30  -2.288687940     -0.4070034557E-01
(PID.TID 0000.0001)    31  -2.312991757     -0.3984645832E-01
(PID.TID 0000.0001)    32  -2.336112443     -0.3901937759E-01
(PID.TID 0000.0001)    33  -2.358128831     -0.3821827509E-01
(PID.TID 0000.0001)    34  -2.379107893     -0.3744217649E-01
(PID.TID 0000.0001)    35  -2.399120761     -0.3669034206E-01
(PID.TID 0000.0001)    36  -2.418226351     -0.3596186474E-01
(PID.TID 0000.0001)    37  -2.436482905     -0.3525594412E-01
(PID.TID 0000.0001)    38  -2.453948379     -0.3457187576E-01
(PID.TID 0000.0001)    39  -2.470670195     -0.3390882631E-01
(PID.TID 0000.0001)    40  -2.486697757     -0.3326609909E-01
(PID.TID 0000.0001)    41  -2.502076334     -0.3264299923E-01
(PID.TID 0000.0001)    42  -2.516847401     -0.3203883174E-01
(PID.TID 0000.0001)    43  -2.531050008     -0.3145293280E-01
(PID.TID 0000.0001)    44  -2.544719530     -0.3088463896E-01
(PID.TID 0000.0001)    45  -2.557890739     -0.3033334191E-01
(PID.TID 0000.0001)    46  -2.570594319     -0.2979842108E-01
(PID.TID 0000.0001)    47  -2.582859779     -0.2927929373E-01
(PID.TID 0000.0001)    48  -2.594714216     -0.2877539004E-01
(PID.TID 0000.0001)    49  -2.606182782     -0.2828615868E-01
(PID.TID 0000.0001)    50  -2.617289738     -0.2781108192E-01
(PID.TID 0000.0001)    51  -2.628056023     -0.2734963353E-01
(PID.TID 0000.0001)    52  -2.638502978     -0.2690133637E-01
(PID.TID 0000.0001)    53  -2.648649164     -0.2646570945E-01
(PID.TID 0000.0001)    54  -2.658512061     -0.2604229418E-01
(PID.TID 0000.0001)    55  -2.668109142     -0.2563066630E-01
(PID.TID 0000.0001)    56  -2.677455130     -0.2523039452E-01
(PID.TID 0000.0001)    57  -2.686564655     -0.2484107774E-01
(PID.TID 0000.0001)    58  -2.695451439     -0.2446233127E-01
(PID.TID 0000.0001)    59  -2.704127764     -0.2409377795E-01
(PID.TID 0000.0001)    60  -2.712605707     -0.2373506405E-01
(PID.TID 0000.0001)    61  -2.720896238     -0.2338584530E-01
(PID.TID 0000.0001)    62  -2.729009765     -0.2304579309E-01
(PID.TID 0000.0001)    63  -2.736955903     -0.2271459030E-01
(PID.TID 0000.0001) SAL_INIT_SHTns: precomputing
(PID.TID 0000.0001) SAL_INIT_FIXED: intermediate grid lats:
(PID.TID 0000.0001)     n                      lat
(PID.TID 0000.0001)     1  87.86379883923262923417
(PID.TID 0000.0001)     2  85.09652698831729367157
(PID.TID 0000.0001)     3  82.31291294788627510570
(PID.TID 0000.0001)     4  79.52560657265944144001
(PID.TID 0000.0001)     5  76.73689968036831032805
(PID.TID 0000.0001)     6  73.94751515398964158976
(PID.TID 0000.0001)     7  71.15775201158731988471
(PID.TID 0000.0001)     8  68.36775610831315930227
(PID.TID 0000.0001)     9  65.57760701082780485649
(PID.TID 0000.0001)    10  62.78735179896306561886
(PID.TID 0000.0001)    11  59.99702010849129152348
(PID.TID 0000.0001)    12  57.20663152764325332100
(PID.TID 0000.0001)    13  54.41619952608620280898
(PID.TID 0000.0001)    14  51.62573367493824605390
(PID.TID 0000.0001)    15  48.83524096625058774634
(PID.TID 0000.0001)    16  46.04472663110167474088
(PID.TID 0000.0001)    17  43.25419466535094414894
(PID.TID 0000.0001)    18  40.46364817811503655776
(PID.TID 0000.0001)    19  37.67308962904532876337
(PID.TID 0000.0001)    20  34.88252099377346127085
(PID.TID 0000.0001)    21  32.09194388174400813796
(PID.TID 0000.0001)    22  29.30135962176273167756
(PID.TID 0000.0001)    23  26.51076932521099038809
(PID.TID 0000.0001)    24  23.72017393353474901119
(PID.TID 0000.0001)    25  20.92957425448951269686
(PID.TID 0000.0001)    26  18.13897099023935410855
(PID.TID 0000.0001)    27  15.34836475949149381393
(PID.TID 0000.0001)    28  12.55775611523067780695
(PID.TID 0000.0001)    29   9.76714555919556914887
(PID.TID 0000.0001)    30   6.97653355394863528005
(PID.TID 0000.0001)    31   4.18592053318915358062
(PID.TID 0000.0001)    32   1.39530691081949598242
(PID.TID 0000.0001)    33  -1.39530691081949598242
(PID.TID 0000.0001)    34  -4.18592053318915358062
(PID.TID 0000.0001)    35  -6.97653355394863528005
(PID.TID 0000.0001)    36  -9.76714555919556914887
(PID.TID 0000.0001)    37 -12.55775611523067780695
(PID.TID 0000.0001)    38 -15.34836475949149381393
(PID.TID 0000.0001)    39 -18.13897099023935410855
(PID.TID 0000.0001)    40 -20.92957425448951269686
(PID.TID 0000.0001)    41 -23.72017393353474901119
(PID.TID 0000.0001)    42 -26.51076932521099038809
(PID.TID 0000.0001)    43 -29.30135962176273167756
(PID.TID 0000.0001)    44 -32.09194388174400813796
(PID.TID 0000.0001)    45 -34.88252099377346127085
(PID.TID 0000.0001)    46 -37.67308962904532876337
(PID.TID 0000.0001)    47 -40.46364817811503655776
(PID.TID 0000.0001)    48 -43.25419466535094414894
(PID.TID 0000.0001)    49 -46.04472663110167474088
(PID.TID 0000.0001)    50 -48.83524096625058774634
(PID.TID 0000.0001)    51 -51.62573367493824605390
(PID.TID 0000.0001)    52 -54.41619952608620280898
(PID.TID 0000.0001)    53 -57.20663152764325332100
(PID.TID 0000.0001)    54 -59.99702010849129152348
(PID.TID 0000.0001)    55 -62.78735179896306561886
(PID.TID 0000.0001)    56 -65.57760701082780485649
(PID.TID 0000.0001)    57 -68.36775610831315930227
(PID.TID 0000.0001)    58 -71.15775201158731988471
(PID.TID 0000.0001)    59 -73.94751515398964158976
(PID.TID 0000.0001)    60 -76.73689968036831032805
(PID.TID 0000.0001)    61 -79.52560657265944144001
(PID.TID 0000.0001)    62 -82.31291294788627510570
(PID.TID 0000.0001)    63 -85.09652698831729367157
(PID.TID 0000.0001)    64 -87.86379883923262923417
(PID.TID 0000.0001) SAL_INIT_FIXED: intermediate grid weights:
(PID.TID 0000.0001)     n                      wgt
(PID.TID 0000.0001)     1   0.00178328072169638336
(PID.TID 0000.0001)     2   0.00414703326056227277
(PID.TID 0000.0001)     3   0.00650445796897833849
(PID.TID 0000.0001)     4   0.00884675982636392959
(PID.TID 0000.0001)     5   0.01116813946013110390
(PID.TID 0000.0001)     6   0.01346304789671854199
(PID.TID 0000.0001)     7   0.01572603047602462792
(PID.TID 0000.0001)     8   0.01795171577569739524
(PID.TID 0000.0001)     9   0.02013482315353022287
(PID.TID 0000.0001)    10   0.02227017380838324997
(PID.TID 0000.0001)    11   0.02435270256871087044
(PID.TID 0000.0001)    12   0.02637746971505470703
(PID.TID 0000.0001)    13   0.02833967261425942782
(PID.TID 0000.0001)    14   0.03023465707240240510
(PID.TID 0000.0001)    15   0.03205792835485153647
(PID.TID 0000.0001)    16   0.03380516183714154382
(PID.TID 0000.0001)    17   0.03547221325688237892
(PID.TID 0000.0001)    18   0.03705512854024009539
(PID.TID 0000.0001)    19   0.03855015317861559127
(PID.TID 0000.0001)    20   0.03995374113272036343
(PID.TID 0000.0001)    21   0.04126256324262349284
(PID.TID 0000.0001)    22   0.04247351512365361154
(PID.TID 0000.0001)    23   0.04358372452932348512
(PID.TID 0000.0001)    24   0.04459055816375667725
(PID.TID 0000.0001)    25   0.04549162792741809347
(PID.TID 0000.0001)    26   0.04628479658131436775
(PID.TID 0000.0001)    27   0.04696818281621002039
(PID.TID 0000.0001)    28   0.04754016571483030140
(PID.TID 0000.0001)    29   0.04799938859645828948
(PID.TID 0000.0001)    30   0.04834476223480294044
(PID.TID 0000.0001)    31   0.04857546744150342127
(PID.TID 0000.0001)    32   0.04869095700913974450
(PID.TID 0000.0001) SAL_INTERP_WEIGHTS: computing interpolation weights
(PID.TID 0000.0001) SAL_INTERP_WEIGHTS: writing weights for model-to-latlon interp
(PID.TID 0000.0001) ------------------------------------------------------------
(PID.TID 0000.0001) DIAGNOSTICS_SET_LEVELS: done
(PID.TID 0000.0001)  Total Nb of available Diagnostics: ndiagt=   218
(PID.TID 0000.0001)  write list of available Diagnostics to file: available_diagnostics.log
(PID.TID 0000.0001) SETDIAG: Allocate  1 x  1 Levels for Diagnostic #    76 PHIBOTfv
(PID.TID 0000.0001) SETDIAG: Allocate  1 x  1 Levels for Diagnostic #   216 PHLSAL
(PID.TID 0000.0001) SETDIAG: Allocate  1 x  1 Levels for Diagnostic #   215 SAL
(PID.TID 0000.0001) SETDIAG: Allocate  1 x  1 Levels for Diagnostic #   218 SALptid0
(PID.TID 0000.0001) SETDIAG: Allocate  1 x  1 Levels for Diagnostic #   217 SALptid1
(PID.TID 0000.0001)   space allocated for all diagnostics:       5 levels
(PID.TID 0000.0001) DIAGNOSTICS_SET_POINTERS: Set levels for Outp.Stream: PHIBOTfv
(PID.TID 0000.0001)  Levels:       1.
(PID.TID 0000.0001) DIAGNOSTICS_SET_POINTERS: Set levels for Outp.Stream: PHLSAL
(PID.TID 0000.0001)  Levels:       1.
(PID.TID 0000.0001) DIAGNOSTICS_SET_POINTERS: Set levels for Outp.Stream: SAL
(PID.TID 0000.0001)  Levels:       1.
(PID.TID 0000.0001) DIAGNOSTICS_SET_POINTERS: Set levels for Outp.Stream: SALptid0
(PID.TID 0000.0001)  Levels:       1.
(PID.TID 0000.0001) DIAGNOSTICS_SET_POINTERS: Set levels for Outp.Stream: SALptid1
(PID.TID 0000.0001)  Levels:       1.
(PID.TID 0000.0001) DIAGNOSTICS_SET_POINTERS: done
(PID.TID 0000.0001) ------------------------------------------------------------
(PID.TID 0000.0001) DIAGSTATS_SET_REGIONS: define   0 regions:
(PID.TID 0000.0001) ------------------------------------------------------------
(PID.TID 0000.0001)   space allocated for all stats-diags:       0 levels
(PID.TID 0000.0001) DIAGSTATS_SET_POINTERS: done
(PID.TID 0000.0001) ------------------------------------------------------------
(PID.TID 0000.0001) %MON fCori_max                    =   1.4579854531444E-04
(PID.TID 0000.0001) %MON fCori_min                    =  -1.4579854531444E-04
(PID.TID 0000.0001) %MON fCori_mean                   =   2.3039296165317E-19
(PID.TID 0000.0001) %MON fCori_sd                     =   1.0312619976228E-04
(PID.TID 0000.0001) %MON fCoriG_max                   =   1.4566679669714E-04
(PID.TID 0000.0001) %MON fCoriG_min                   =  -1.4584247033981E-04
(PID.TID 0000.0001) %MON fCoriG_mean                  =  -2.2787885990593E-06
(PID.TID 0000.0001) %MON fCoriG_sd                    =   1.0310101939326E-04
(PID.TID 0000.0001) %MON fCoriCos_max                 =   1.4579854531444E-04
(PID.TID 0000.0001) %MON fCoriCos_min                 =   3.5791533929553E-06
(PID.TID 0000.0001) %MON fCoriCos_mean                =   9.2855522572229E-05
(PID.TID 0000.0001) %MON fCoriCos_sd                  =   4.4864964117307E-05
(PID.TID 0000.0001) INI_CG2D: CG2D normalisation factor =  7.0372759228205380E-05
(PID.TID 0000.0001) 
(PID.TID 0000.0001) // =======================================================
(PID.TID 0000.0001) // Model configuration
(PID.TID 0000.0001) // =======================================================
(PID.TID 0000.0001) //
(PID.TID 0000.0001) // "Physical" paramters ( PARM01 in namelist )
(PID.TID 0000.0001) //
(PID.TID 0000.0001) buoyancyRelation = /* Type of relation to get Buoyancy */
(PID.TID 0000.0001)               'OCEANIC'
(PID.TID 0000.0001)     ;
(PID.TID 0000.0001) fluidIsAir   =  /* fluid major constituent is Air */
(PID.TID 0000.0001)                   F
(PID.TID 0000.0001)     ;
(PID.TID 0000.0001) fluidIsWater =  /* fluid major constituent is Water */
(PID.TID 0000.0001)                   T
(PID.TID 0000.0001)     ;
(PID.TID 0000.0001) usingPCoords =  /* use p (or p*) vertical coordinate */
(PID.TID 0000.0001)                   F
(PID.TID 0000.0001)     ;
(PID.TID 0000.0001) usingZCoords =  /* use z (or z*) vertical coordinate */
(PID.TID 0000.0001)                   T
(PID.TID 0000.0001)     ;
(PID.TID 0000.0001) tRef =   /* Reference temperature profile ( oC or K ) */
(PID.TID 0000.0001)    15 @  2.000000000000000E+01              /* K =  1: 15 */
(PID.TID 0000.0001)     ;
(PID.TID 0000.0001) sRef =   /* Reference salinity profile ( g/kg ) */
(PID.TID 0000.0001)    15 @  3.500000000000000E+01              /* K =  1: 15 */
(PID.TID 0000.0001)     ;
(PID.TID 0000.0001) useStrainTensionVisc= /* Use StrainTension Form of Viscous Operator */
(PID.TID 0000.0001)                   F
(PID.TID 0000.0001)     ;
(PID.TID 0000.0001) useVariableVisc = /* Use variable horizontal viscosity */
(PID.TID 0000.0001)                   F
(PID.TID 0000.0001)     ;
(PID.TID 0000.0001) useHarmonicVisc = /* Use harmonic horizontal viscosity */
(PID.TID 0000.0001)                   T
(PID.TID 0000.0001)     ;
(PID.TID 0000.0001) useBiharmonicVisc= /* Use biharmonic horiz.  viscosity */
(PID.TID 0000.0001)                   F
(PID.TID 0000.0001)     ;
(PID.TID 0000.0001) useSmag3D = /* Use isotropic 3-D Smagorinsky viscosity */
(PID.TID 0000.0001)                   F
(PID.TID 0000.0001)     ;
(PID.TID 0000.0001) viscAh  =   /* Lateral harmonic viscosity ( m^2/s ) */
(PID.TID 0000.0001)                 2.000000000000000E+05
(PID.TID 0000.0001)     ;
(PID.TID 0000.0001) viscA4  =   /* Lateral biharmonic viscosity ( m^4/s ) */
(PID.TID 0000.0001)                 0.000000000000000E+00
(PID.TID 0000.0001)     ;
(PID.TID 0000.0001) no_slip_sides =  /* Viscous BCs: No-slip sides */
(PID.TID 0000.0001)                   T
(PID.TID 0000.0001)     ;
(PID.TID 0000.0001) sideDragFactor = /* side-drag scaling factor (non-dim) */
(PID.TID 0000.0001)                 2.000000000000000E+00
(PID.TID 0000.0001)     ;
(PID.TID 0000.0001) viscArNr = /* vertical profile of vertical viscosity ( m^2/s )*/
(PID.TID 0000.0001)    15 @  1.000000000000000E-03              /* K =  1: 15 */
(PID.TID 0000.0001)     ;
(PID.TID 0000.0001) no_slip_bottom =  /* Viscous BCs: No-slip bottom */
(PID.TID 0000.0001)                   T
(PID.TID 0000.0001)     ;
(PID.TID 0000.0001) bottomVisc_pCell = /* Partial-cell in bottom Visc. BC */
(PID.TID 0000.0001)                   F
(PID.TID 0000.0001)     ;
(PID.TID 0000.0001) bottomDragLinear = /* linear bottom-drag coefficient ( m/s ) */
(PID.TID 0000.0001)                 0.000000000000000E+00
(PID.TID 0000.0001)     ;
(PID.TID 0000.0001) bottomDragQuadratic = /* quadratic bottom-drag coefficient (-) */
(PID.TID 0000.0001)                 0.000000000000000E+00
(PID.TID 0000.0001)     ;
(PID.TID 0000.0001) selectBotDragQuadr = /* select quadratic bottom drag options */
(PID.TID 0000.0001)                      -1
(PID.TID 0000.0001)     ;
(PID.TID 0000.0001) diffKhT =   /* Laplacian diffusion of heat laterally ( m^2/s ) */
(PID.TID 0000.0001)                 0.000000000000000E+00
(PID.TID 0000.0001)     ;
(PID.TID 0000.0001) diffK4T =   /* Biharmonic diffusion of heat laterally ( m^4/s ) */
(PID.TID 0000.0001)                 0.000000000000000E+00
(PID.TID 0000.0001)     ;
(PID.TID 0000.0001) diffKhS =   /* Laplacian diffusion of salt laterally ( m^2/s ) */
(PID.TID 0000.0001)                 0.000000000000000E+00
(PID.TID 0000.0001)     ;
(PID.TID 0000.0001) diffK4S =   /* Biharmonic diffusion of salt laterally ( m^4/s ) */
(PID.TID 0000.0001)                 0.000000000000000E+00
(PID.TID 0000.0001)     ;
(PID.TID 0000.0001) diffKrNrT = /* vertical profile of vertical diffusion of Temp ( m^2/s )*/
(PID.TID 0000.0001)    15 @  0.000000000000000E+00              /* K =  1: 15 */
(PID.TID 0000.0001)     ;
(PID.TID 0000.0001) diffKrNrS = /* vertical profile of vertical diffusion of Salt ( m^2/s )*/
(PID.TID 0000.0001)    15 @  0.000000000000000E+00              /* K =  1: 15 */
(PID.TID 0000.0001)     ;
(PID.TID 0000.0001) diffKrBL79surf = /* Surface diffusion for Bryan and Lewis 79 ( m^2/s ) */
(PID.TID 0000.0001)                 3.000000000000000E-05
(PID.TID 0000.0001)     ;
(PID.TID 0000.0001) diffKrBL79deep = /* Deep diffusion for Bryan and Lewis 1979 ( m^2/s ) */
(PID.TID 0000.0001)                 1.300000000000000E-04
(PID.TID 0000.0001)     ;
(PID.TID 0000.0001) diffKrBL79scl = /* Depth scale for Bryan and Lewis 1979 ( m ) */
(PID.TID 0000.0001)                 1.500000000000000E+02
(PID.TID 0000.0001)     ;
(PID.TID 0000.0001) diffKrBL79Ho = /* Turning depth for Bryan and Lewis 1979 ( m ) */
(PID.TID 0000.0001)                -2.000000000000000E+03
(PID.TID 0000.0001)     ;
(PID.TID 0000.0001) ivdc_kappa = /* Implicit Vertical Diffusivity for Convection ( m^2/s) */
(PID.TID 0000.0001)                 1.000000000000000E+02
(PID.TID 0000.0001)     ;
(PID.TID 0000.0001) hMixCriteria=  /* Criteria for mixed-layer diagnostic */
(PID.TID 0000.0001)                -8.000000000000000E-01
(PID.TID 0000.0001)     ;
(PID.TID 0000.0001) dRhoSmall =  /* Parameter for mixed-layer diagnostic */
(PID.TID 0000.0001)                 1.000000000000000E-06
(PID.TID 0000.0001)     ;
(PID.TID 0000.0001) hMixSmooth=  /* Smoothing parameter for mixed-layer diagnostic */
(PID.TID 0000.0001)                 0.000000000000000E+00
(PID.TID 0000.0001)     ;
(PID.TID 0000.0001) eosType =  /* Type of Equation of State */
(PID.TID 0000.0001)               'JMD95Z'
(PID.TID 0000.0001)     ;
(PID.TID 0000.0001) eosRefP0 = /* Reference atmospheric pressure for EOS ( Pa ) */
(PID.TID 0000.0001)                 1.013250000000000E+05
(PID.TID 0000.0001)     ;
(PID.TID 0000.0001) selectP_inEOS_Zc = /* select pressure to use in EOS (0,1,2,3) */
(PID.TID 0000.0001)                       0
(PID.TID 0000.0001)     0= -g*rhoConst*z ; 1= pRef (from tRef,sRef); 2= Hyd P ; 3= Hyd+NH P
(PID.TID 0000.0001)     ;
(PID.TID 0000.0001) surf_pRef = /* Surface reference pressure ( Pa ) */
(PID.TID 0000.0001)                 1.013250000000000E+05
(PID.TID 0000.0001)     ;
(PID.TID 0000.0001) HeatCapacity_Cp =  /* Specific heat capacity ( J/kg/K ) */
(PID.TID 0000.0001)                 3.994000000000000E+03
(PID.TID 0000.0001)     ;
(PID.TID 0000.0001) celsius2K = /* 0 degree Celsius converted to Kelvin ( K ) */
(PID.TID 0000.0001)                 2.731500000000000E+02
(PID.TID 0000.0001)     ;
(PID.TID 0000.0001) rhoConst  = /* Reference density (Boussinesq)  ( kg/m^3 ) */
(PID.TID 0000.0001)                 1.035000000000000E+03
(PID.TID 0000.0001)     ;
(PID.TID 0000.0001) rhoFacC = /* normalized Reference density @ cell-Center (-) */
(PID.TID 0000.0001)    15 @  1.000000000000000E+00              /* K =  1: 15 */
(PID.TID 0000.0001)     ;
(PID.TID 0000.0001) rhoFacF = /* normalized Reference density @ W-Interface (-) */
(PID.TID 0000.0001)    16 @  1.000000000000000E+00              /* K =  1: 16 */
(PID.TID 0000.0001)     ;
(PID.TID 0000.0001) rhoConstFresh = /* Fresh-water reference density ( kg/m^3 ) */
(PID.TID 0000.0001)                 1.000000000000000E+03
(PID.TID 0000.0001)     ;
(PID.TID 0000.0001) gravity =   /* Gravitational acceleration ( m/s^2 ) */
(PID.TID 0000.0001)                 9.810000000000000E+00
(PID.TID 0000.0001)     ;
(PID.TID 0000.0001) gBaro =   /* Barotropic gravity ( m/s^2 ) */
(PID.TID 0000.0001)                 9.810000000000000E+00
(PID.TID 0000.0001)     ;
(PID.TID 0000.0001) gravFacC = /* gravity factor (vs surf.) @ cell-Center (-) */
(PID.TID 0000.0001)    15 @  1.000000000000000E+00              /* K =  1: 15 */
(PID.TID 0000.0001)     ;
(PID.TID 0000.0001) gravFacF = /* gravity factor (vs surf.) @ W-Interface (-) */
(PID.TID 0000.0001)    16 @  1.000000000000000E+00              /* K =  1: 16 */
(PID.TID 0000.0001)     ;
(PID.TID 0000.0001) rotationPeriod =   /* Rotation Period ( s ) */
(PID.TID 0000.0001)                 8.616400000000000E+04
(PID.TID 0000.0001)     ;
(PID.TID 0000.0001) omega =   /* Angular velocity ( rad/s ) */
(PID.TID 0000.0001)                 7.292123516990375E-05
(PID.TID 0000.0001)     ;
(PID.TID 0000.0001) f0 =   /* Reference coriolis parameter ( 1/s ) */
(PID.TID 0000.0001)                 1.000000000000000E-04
(PID.TID 0000.0001)     ;
(PID.TID 0000.0001) beta =   /* Beta ( 1/(m.s) ) */
(PID.TID 0000.0001)                 9.999999999999999E-12
(PID.TID 0000.0001)     ;
(PID.TID 0000.0001) fPrime =   /* Second coriolis parameter ( 1/s ) */
(PID.TID 0000.0001)                 0.000000000000000E+00
(PID.TID 0000.0001)     ;
(PID.TID 0000.0001) rigidLid =   /* Rigid lid on/off flag */
(PID.TID 0000.0001)                   F
(PID.TID 0000.0001)     ;
(PID.TID 0000.0001) implicitFreeSurface =   /* Implicit free surface on/off flag */
(PID.TID 0000.0001)                   T
(PID.TID 0000.0001)     ;
(PID.TID 0000.0001) freeSurfFac =   /* Implicit free surface factor */
(PID.TID 0000.0001)                 1.000000000000000E+00
(PID.TID 0000.0001)     ;
(PID.TID 0000.0001) implicSurfPress =  /* Surface Pressure implicit factor (0-1) */
(PID.TID 0000.0001)                 1.000000000000000E+00
(PID.TID 0000.0001)     ;
(PID.TID 0000.0001) implicDiv2DFlow =  /* Barot. Flow Div. implicit factor (0-1) */
(PID.TID 0000.0001)                 1.000000000000000E+00
(PID.TID 0000.0001)     ;
(PID.TID 0000.0001) uniformLin_PhiSurf = /* use uniform Bo_surf on/off flag */
(PID.TID 0000.0001)                   T
(PID.TID 0000.0001)     ;
(PID.TID 0000.0001) uniformFreeSurfLev = /* free-surface level-index is uniform */
(PID.TID 0000.0001)                   T
(PID.TID 0000.0001)     ;
(PID.TID 0000.0001) sIceLoadFac =  /* scale factor for sIceLoad (0-1) */
(PID.TID 0000.0001)                 1.000000000000000E+00
(PID.TID 0000.0001)     ;
(PID.TID 0000.0001) hFacMin =   /* minimum partial cell factor (hFac) */
(PID.TID 0000.0001)                 1.000000000000000E-01
(PID.TID 0000.0001)     ;
(PID.TID 0000.0001) hFacMinDr = /* minimum partial cell thickness ( m) */
(PID.TID 0000.0001)                 5.000000000000000E+01
(PID.TID 0000.0001)     ;
(PID.TID 0000.0001) exactConserv =  /* Exact Volume Conservation on/off flag */
(PID.TID 0000.0001)                   F
(PID.TID 0000.0001)     ;
(PID.TID 0000.0001) linFSConserveTr = /* Tracer correction for Lin Free Surface on/off flag */
(PID.TID 0000.0001)                   F
(PID.TID 0000.0001)     ;
(PID.TID 0000.0001) nonlinFreeSurf = /* Non-linear Free Surf. options (-1,0,1,2,3)*/
(PID.TID 0000.0001)                       0
(PID.TID 0000.0001)      -1,0= Off ; 1,2,3= On, 2=+rescale gU,gV, 3=+update cg2d solv.
(PID.TID 0000.0001)     ;
(PID.TID 0000.0001) hFacInf =   /* lower threshold for hFac (nonlinFreeSurf only)*/
(PID.TID 0000.0001)                 2.000000000000000E-01
(PID.TID 0000.0001)     ;
(PID.TID 0000.0001) hFacSup =   /* upper threshold for hFac (nonlinFreeSurf only)*/
(PID.TID 0000.0001)                 2.000000000000000E+00
(PID.TID 0000.0001)     ;
(PID.TID 0000.0001) select_rStar = /* r* Vertical coord. options (=0 r coord.; >0 uses r*)*/
(PID.TID 0000.0001)                       0
(PID.TID 0000.0001)     ;
(PID.TID 0000.0001) useRealFreshWaterFlux = /* Real Fresh Water Flux on/off flag*/
(PID.TID 0000.0001)                   F
(PID.TID 0000.0001)     ;
(PID.TID 0000.0001) temp_EvPrRn = /* Temp. of Evap/Prec/R (UNSET=use local T)(oC)*/
(PID.TID 0000.0001)                 1.234567000000000E+05
(PID.TID 0000.0001)     ;
(PID.TID 0000.0001) salt_EvPrRn = /* Salin. of Evap/Prec/R (UNSET=use local S)(g/kg)*/
(PID.TID 0000.0001)                 0.000000000000000E+00
(PID.TID 0000.0001)     ;
(PID.TID 0000.0001) selectAddFluid = /* option for mass source/sink of fluid (=0: off) */
(PID.TID 0000.0001)                       0
(PID.TID 0000.0001)     ;
(PID.TID 0000.0001) temp_addMass = /* Temp. of addMass array (UNSET=use local T)(oC)*/
(PID.TID 0000.0001)                 1.234567000000000E+05
(PID.TID 0000.0001)     ;
(PID.TID 0000.0001) salt_addMass = /* Salin. of addMass array (UNSET=use local S)(g/kg)*/
(PID.TID 0000.0001)                 0.000000000000000E+00
(PID.TID 0000.0001)     ;
(PID.TID 0000.0001) convertFW2Salt = /* convert F.W. Flux to Salt Flux (-1=use local S)(g/kg)*/
(PID.TID 0000.0001)                 3.500000000000000E+01
(PID.TID 0000.0001)     ;
(PID.TID 0000.0001) use3Dsolver = /* use 3-D pressure solver on/off flag */
(PID.TID 0000.0001)                   F
(PID.TID 0000.0001)     ;
(PID.TID 0000.0001) nonHydrostatic =  /* Non-Hydrostatic on/off flag */
(PID.TID 0000.0001)                   F
(PID.TID 0000.0001)     ;
(PID.TID 0000.0001) nh_Am2 = /* Non-Hydrostatic terms scaling factor */
(PID.TID 0000.0001)                 1.000000000000000E+00
(PID.TID 0000.0001)     ;
(PID.TID 0000.0001) implicitNHPress = /* Non-Hyd Pressure implicit factor (0-1)*/
(PID.TID 0000.0001)                 1.000000000000000E+00
(PID.TID 0000.0001)     ;
(PID.TID 0000.0001) selectNHfreeSurf = /* Non-Hyd (free-)Surface option */
(PID.TID 0000.0001)                       0
(PID.TID 0000.0001)     ;
(PID.TID 0000.0001) quasiHydrostatic = /* Quasi-Hydrostatic on/off flag */
(PID.TID 0000.0001)                   F
(PID.TID 0000.0001)     ;
(PID.TID 0000.0001) calc_wVelocity = /* vertical velocity calculation on/off flag */
(PID.TID 0000.0001)                   T
(PID.TID 0000.0001)     ;
(PID.TID 0000.0001) momStepping =  /* Momentum equation on/off flag */
(PID.TID 0000.0001)                   T
(PID.TID 0000.0001)     ;
(PID.TID 0000.0001) vectorInvariantMomentum= /* Vector-Invariant Momentum on/off */
(PID.TID 0000.0001)                   F
(PID.TID 0000.0001)     ;
(PID.TID 0000.0001) momAdvection =  /* Momentum advection on/off flag */
(PID.TID 0000.0001)                   T
(PID.TID 0000.0001)     ;
(PID.TID 0000.0001) momViscosity =  /* Momentum viscosity on/off flag */
[...]
 EXTERNAL_FIELDS_LOAD,   5184007 : iP,iLd,i0,i1=   12    1   12    1 ; Wght=  0.3833333333  0.6166666667
 cg2d: Sum(rhs),rhsMax =  -2.94271195855345E-07  8.30535343118497E+00
(PID.TID 0000.0001)      cg2d_init_res =   1.53681402335030E-02
(PID.TID 0000.0001)      cg2d_iters(min,last) =      -1      23
(PID.TID 0000.0001)      cg2d_last_res =   3.32734161921324E-14
(PID.TID 0000.0001) // =======================================================
(PID.TID 0000.0001) // Begin MONITOR dynamic field statistics
(PID.TID 0000.0001) // =======================================================
(PID.TID 0000.0001) %MON time_tsnumber                =               5184008
(PID.TID 0000.0001) %MON time_secondsf                =   2.2394914560000E+11
(PID.TID 0000.0001) %MON dynstat_eta_max              =   9.6310679752598E-01
(PID.TID 0000.0001) %MON dynstat_eta_min              =  -1.4774735967289E+00
(PID.TID 0000.0001) %MON dynstat_eta_mean             =   8.5160053163916E-11
(PID.TID 0000.0001) %MON dynstat_eta_sd               =   5.6473109143740E-01
(PID.TID 0000.0001) %MON dynstat_eta_del2             =   1.1648791808028E-03
(PID.TID 0000.0001) %MON dynstat_uvel_max             =   1.9078931078435E-01
(PID.TID 0000.0001) %MON dynstat_uvel_min             =  -2.3677718513765E-01
(PID.TID 0000.0001) %MON dynstat_uvel_mean            =   1.8623312527086E-03
(PID.TID 0000.0001) %MON dynstat_uvel_sd              =   1.3099284824533E-02
(PID.TID 0000.0001) %MON dynstat_uvel_del2            =   4.9119684983051E-05
(PID.TID 0000.0001) %MON dynstat_vvel_max             =   1.4752537509269E-01
(PID.TID 0000.0001) %MON dynstat_vvel_min             =  -2.1106605368208E-01
(PID.TID 0000.0001) %MON dynstat_vvel_mean            =  -1.5778627470119E-04
(PID.TID 0000.0001) %MON dynstat_vvel_sd              =   7.2948531213415E-03
(PID.TID 0000.0001) %MON dynstat_vvel_del2            =   3.7938338215306E-05
(PID.TID 0000.0001) %MON dynstat_wvel_max             =   5.2196983586112E-05
(PID.TID 0000.0001) %MON dynstat_wvel_min             =  -5.4249535642996E-05
(PID.TID 0000.0001) %MON dynstat_wvel_mean            =   3.3349514144392E-22
(PID.TID 0000.0001) %MON dynstat_wvel_sd              =   2.5980180586146E-06
(PID.TID 0000.0001) %MON dynstat_wvel_del2            =   1.7730658971547E-08
(PID.TID 0000.0001) %MON dynstat_theta_max            =   3.0286450032449E+01
(PID.TID 0000.0001) %MON dynstat_theta_min            =  -3.4583191938143E+00
(PID.TID 0000.0001) %MON dynstat_theta_mean           =   3.8024963011230E+00
(PID.TID 0000.0001) %MON dynstat_theta_sd             =   4.5126960022649E+00
(PID.TID 0000.0001) %MON dynstat_theta_del2           =   2.5985726383330E-03
(PID.TID 0000.0001) %MON dynstat_salt_max             =   3.7554861084750E+01
(PID.TID 0000.0001) %MON dynstat_salt_min             =   3.1489984561591E+01
(PID.TID 0000.0001) %MON dynstat_salt_mean            =   3.4614651170707E+01
(PID.TID 0000.0001) %MON dynstat_salt_sd              =   3.1406963389244E-01
(PID.TID 0000.0001) %MON dynstat_salt_del2            =   4.0483282046561E-04
(PID.TID 0000.0001) %MON forcing_qnet_max             =   4.5118438262939E+02
(PID.TID 0000.0001) %MON forcing_qnet_min             =  -2.1021701151530E+02
(PID.TID 0000.0001) %MON forcing_qnet_mean            =  -1.7615543013161E+01
(PID.TID 0000.0001) %MON forcing_qnet_sd              =   1.1532035309437E+02
(PID.TID 0000.0001) %MON forcing_qnet_del2            =   2.7423890678707E-01
(PID.TID 0000.0001) %MON forcing_qsw_max              =   0.0000000000000E+00
(PID.TID 0000.0001) %MON forcing_qsw_min              =   0.0000000000000E+00
(PID.TID 0000.0001) %MON forcing_qsw_mean             =   0.0000000000000E+00
(PID.TID 0000.0001) %MON forcing_qsw_sd               =   0.0000000000000E+00
(PID.TID 0000.0001) %MON forcing_qsw_del2             =   0.0000000000000E+00
(PID.TID 0000.0001) %MON forcing_empmr_max            =   6.6865915471226E-05
(PID.TID 0000.0001) %MON forcing_empmr_min            =  -1.5018765964214E-04
(PID.TID 0000.0001) %MON forcing_empmr_mean           =   7.7320599494492E-09
(PID.TID 0000.0001) %MON forcing_empmr_sd             =   2.3858729798697E-05
(PID.TID 0000.0001) %MON forcing_empmr_del2           =   1.1192342175733E-07
(PID.TID 0000.0001) %MON forcing_fu_max               =   2.6882638831933E-01
(PID.TID 0000.0001) %MON forcing_fu_min               =  -1.5679532041152E-01
(PID.TID 0000.0001) %MON forcing_fu_mean              =   1.7783635969030E-02
(PID.TID 0000.0001) %MON forcing_fu_sd                =   8.9589425917929E-02
(PID.TID 0000.0001) %MON forcing_fu_del2              =   2.5030845446559E-04
(PID.TID 0000.0001) %MON forcing_fv_max               =   1.9980367248257E-01
(PID.TID 0000.0001) %MON forcing_fv_min               =  -1.6012791246176E-01
(PID.TID 0000.0001) %MON forcing_fv_mean              =  -6.3210599055918E-03
(PID.TID 0000.0001) %MON forcing_fv_sd                =   4.4649402390612E-02
(PID.TID 0000.0001) %MON forcing_fv_del2              =   1.8030825413732E-04
(PID.TID 0000.0001) %MON trAdv_CFL_u_max              =   3.3432135630302E-02
(PID.TID 0000.0001) %MON trAdv_CFL_v_max              =   2.9252059636809E-02
(PID.TID 0000.0001) %MON trAdv_CFL_w_max              =   1.4338063362986E-02
(PID.TID 0000.0001) %MON advcfl_uvel_max              =   3.3448089779916E-02
(PID.TID 0000.0001) %MON advcfl_vvel_max              =   2.9160354942509E-02
(PID.TID 0000.0001) %MON advcfl_wvel_max              =   1.2148153448449E-02
(PID.TID 0000.0001) %MON advcfl_W_hf_max              =   1.4317466564243E-02
(PID.TID 0000.0001) %MON pe_b_mean                    =   4.1104283533477E-04
(PID.TID 0000.0001) %MON ke_max                       =   3.1071967737835E-02
(PID.TID 0000.0001) %MON ke_mean                      =   1.0570696806428E-04
(PID.TID 0000.0001) %MON ke_vol                       =   1.2571476858570E+18
(PID.TID 0000.0001) %MON vort_r_min                   =  -9.1101869741154E-07
(PID.TID 0000.0001) %MON vort_r_max                   =   9.7133136425497E-07
(PID.TID 0000.0001) %MON vort_a_mean                  =  -2.4002453570026E-05
(PID.TID 0000.0001) %MON vort_a_sd                    =   7.3138177270685E-05
(PID.TID 0000.0001) %MON vort_p_mean                  =  -2.8585773838204E-05
(PID.TID 0000.0001) %MON vort_p_sd                    =   1.1453377206191E-04
(PID.TID 0000.0001) %MON surfExpan_theta_mean         =  -1.4130043687967E-07
(PID.TID 0000.0001) %MON surfExpan_salt_mean          =   1.9721055253370E-08
(PID.TID 0000.0001) // =======================================================
(PID.TID 0000.0001) // End MONITOR dynamic field statistics
(PID.TID 0000.0001) // =======================================================
 Computing Diagnostic #     76  PHIBOTfv     Counter:       2   Parms: SM      M1      
 Computing Diagnostic #    216  PHLSAL       Counter:       2   Parms: SM      U1      
 Computing Diagnostic #    215  SAL          Counter:       2   Parms: SM      U1      
 Computing Diagnostic #    218  SALptid0     Counter:       2   Parms: SM      U1      
 Computing Diagnostic #    217  SALptid1     Counter:       2   Parms: SM      U1      
(PID.TID 0000.0001) %CHECKPOINT   5184008 ckptA
(PID.TID 0000.0001)   Seconds in section "ALL                    [THE_MODEL_MAIN]":
(PID.TID 0000.0001)           User time:   7.01102087786421
(PID.TID 0000.0001)         System time:  0.000000000000000E+000
(PID.TID 0000.0001)     Wall clock time:   7.32591199874878
(PID.TID 0000.0001)          No. starts:           1
(PID.TID 0000.0001)           No. stops:           1
(PID.TID 0000.0001)   Seconds in section "INITIALISE_FIXED       [THE_MODEL_MAIN]":
(PID.TID 0000.0001)           User time:   2.02739194268361
(PID.TID 0000.0001)         System time:  0.000000000000000E+000
(PID.TID 0000.0001)     Wall clock time:   2.10555696487427
(PID.TID 0000.0001)          No. starts:           1
(PID.TID 0000.0001)           No. stops:           1
(PID.TID 0000.0001)   Seconds in section "THE_MAIN_LOOP          [THE_MODEL_MAIN]":
(PID.TID 0000.0001)           User time:   4.98361015319824
(PID.TID 0000.0001)         System time:  0.000000000000000E+000
(PID.TID 0000.0001)     Wall clock time:   5.22033286094666
(PID.TID 0000.0001)          No. starts:           1
(PID.TID 0000.0001)           No. stops:           1
(PID.TID 0000.0001)   Seconds in section "INITIALISE_VARIA    [THE_MAIN_LOOP]":
(PID.TID 0000.0001)           User time:  0.252572059631348
(PID.TID 0000.0001)         System time:  0.000000000000000E+000
(PID.TID 0000.0001)     Wall clock time:  0.301821947097778
(PID.TID 0000.0001)          No. starts:           1
(PID.TID 0000.0001)           No. stops:           1
(PID.TID 0000.0001)   Seconds in section "MAIN LOOP           [THE_MAIN_LOOP]":
(PID.TID 0000.0001)           User time:   4.73101902008057
(PID.TID 0000.0001)         System time:  0.000000000000000E+000
(PID.TID 0000.0001)     Wall clock time:   4.91849184036255
(PID.TID 0000.0001)          No. starts:           1
(PID.TID 0000.0001)           No. stops:           1
(PID.TID 0000.0001)   Seconds in section "MAIN_DO_LOOP        [THE_MAIN_LOOP]":
(PID.TID 0000.0001)           User time:   4.73098325729370
(PID.TID 0000.0001)         System time:  0.000000000000000E+000
(PID.TID 0000.0001)     Wall clock time:   4.91843605041504
(PID.TID 0000.0001)          No. starts:           8
(PID.TID 0000.0001)           No. stops:           8
(PID.TID 0000.0001)   Seconds in section "FORWARD_STEP        [MAIN_DO_LOOP]":
(PID.TID 0000.0001)           User time:   4.73085331916809
(PID.TID 0000.0001)         System time:  0.000000000000000E+000
(PID.TID 0000.0001)     Wall clock time:   4.91833710670471
(PID.TID 0000.0001)          No. starts:           8
(PID.TID 0000.0001)           No. stops:           8
(PID.TID 0000.0001)   Seconds in section "DO_STATEVARS_DIAGS  [FORWARD_STEP]":
(PID.TID 0000.0001)           User time:  1.375675201416016E-004
(PID.TID 0000.0001)         System time:  0.000000000000000E+000
(PID.TID 0000.0001)     Wall clock time:  2.038478851318359E-004
(PID.TID 0000.0001)          No. starts:          16
(PID.TID 0000.0001)           No. stops:          16
(PID.TID 0000.0001)   Seconds in section "LOAD_FIELDS_DRIVER  [FORWARD_STEP]":
(PID.TID 0000.0001)           User time:  1.459431648254395E-002
(PID.TID 0000.0001)         System time:  0.000000000000000E+000
(PID.TID 0000.0001)     Wall clock time:  1.537704467773438E-002
(PID.TID 0000.0001)          No. starts:           8
(PID.TID 0000.0001)           No. stops:           8
(PID.TID 0000.0001)   Seconds in section "EXTERNAL_FLDS_LOAD [LOAD_FLDS_DRIVER]":
(PID.TID 0000.0001)           User time:  1.403951644897461E-002
(PID.TID 0000.0001)         System time:  0.000000000000000E+000
(PID.TID 0000.0001)     Wall clock time:  1.479268074035645E-002
(PID.TID 0000.0001)          No. starts:           8
(PID.TID 0000.0001)           No. stops:           8
(PID.TID 0000.0001)   Seconds in section "DO_ATMOSPHERIC_PHYS [FORWARD_STEP]":
(PID.TID 0000.0001)           User time:  4.696846008300781E-005
(PID.TID 0000.0001)         System time:  0.000000000000000E+000
(PID.TID 0000.0001)     Wall clock time:  4.982948303222656E-005
(PID.TID 0000.0001)          No. starts:           8
(PID.TID 0000.0001)           No. stops:           8
(PID.TID 0000.0001)   Seconds in section "DO_OCEANIC_PHYS     [FORWARD_STEP]":
(PID.TID 0000.0001)           User time:  0.663747787475586
(PID.TID 0000.0001)         System time:  0.000000000000000E+000
(PID.TID 0000.0001)     Wall clock time:  0.664843082427979
(PID.TID 0000.0001)          No. starts:           8
(PID.TID 0000.0001)           No. stops:           8
(PID.TID 0000.0001)   Seconds in section "SAL_APPLY       [DO_OCEANIC_PHYS]":
(PID.TID 0000.0001)           User time:  3.044342994689941E-002
(PID.TID 0000.0001)         System time:  0.000000000000000E+000
(PID.TID 0000.0001)     Wall clock time:  3.144192695617676E-002
(PID.TID 0000.0001)          No. starts:           8
(PID.TID 0000.0001)           No. stops:           8
(PID.TID 0000.0001)   Seconds in section "THERMODYNAMICS      [FORWARD_STEP]":
(PID.TID 0000.0001)           User time:   1.15793919563293
(PID.TID 0000.0001)         System time:  0.000000000000000E+000
(PID.TID 0000.0001)     Wall clock time:   1.16002535820007
(PID.TID 0000.0001)          No. starts:           8
(PID.TID 0000.0001)           No. stops:           8
(PID.TID 0000.0001)   Seconds in section "DYNAMICS            [FORWARD_STEP]":
(PID.TID 0000.0001)           User time:   1.77451634407043
(PID.TID 0000.0001)         System time:  0.000000000000000E+000
(PID.TID 0000.0001)     Wall clock time:   1.77560019493103
(PID.TID 0000.0001)          No. starts:           8
(PID.TID 0000.0001)           No. stops:           8
(PID.TID 0000.0001)   Seconds in section "SOLVE_FOR_PRESSURE  [FORWARD_STEP]":
(PID.TID 0000.0001)           User time:  0.211336851119995
(PID.TID 0000.0001)         System time:  0.000000000000000E+000
(PID.TID 0000.0001)     Wall clock time:  0.211298227310181
(PID.TID 0000.0001)          No. starts:           8
(PID.TID 0000.0001)           No. stops:           8
(PID.TID 0000.0001)   Seconds in section "MOM_CORRECTION_STEP [FORWARD_STEP]":
(PID.TID 0000.0001)           User time:  5.060887336730957E-002
(PID.TID 0000.0001)         System time:  0.000000000000000E+000
(PID.TID 0000.0001)     Wall clock time:  5.059933662414551E-002
(PID.TID 0000.0001)          No. starts:           8
(PID.TID 0000.0001)           No. stops:           8
(PID.TID 0000.0001)   Seconds in section "INTEGR_CONTINUITY   [FORWARD_STEP]":
(PID.TID 0000.0001)           User time:  5.285859107971191E-002
(PID.TID 0000.0001)         System time:  0.000000000000000E+000
(PID.TID 0000.0001)     Wall clock time:  5.279612541198730E-002
(PID.TID 0000.0001)          No. starts:           8
(PID.TID 0000.0001)           No. stops:           8
(PID.TID 0000.0001)   Seconds in section "TRC_CORRECTION_STEP [FORWARD_STEP]":
(PID.TID 0000.0001)           User time:  3.767013549804688E-005
(PID.TID 0000.0001)         System time:  0.000000000000000E+000
(PID.TID 0000.0001)     Wall clock time:  4.911422729492188E-005
(PID.TID 0000.0001)          No. starts:           8
(PID.TID 0000.0001)           No. stops:           8
(PID.TID 0000.0001)   Seconds in section "BLOCKING_EXCHANGES  [FORWARD_STEP]":
(PID.TID 0000.0001)           User time:  0.130395650863647
(PID.TID 0000.0001)         System time:  0.000000000000000E+000
(PID.TID 0000.0001)     Wall clock time:  0.130322217941284
(PID.TID 0000.0001)          No. starts:           8
(PID.TID 0000.0001)           No. stops:           8
(PID.TID 0000.0001)   Seconds in section "DO_STATEVARS_TAVE   [FORWARD_STEP]":
(PID.TID 0000.0001)           User time:  9.751319885253906E-005
(PID.TID 0000.0001)         System time:  0.000000000000000E+000
(PID.TID 0000.0001)     Wall clock time:  4.482269287109375E-005
(PID.TID 0000.0001)          No. starts:           8
(PID.TID 0000.0001)           No. stops:           8
(PID.TID 0000.0001)   Seconds in section "MONITOR             [FORWARD_STEP]":
(PID.TID 0000.0001)           User time:  0.437706708908081
(PID.TID 0000.0001)         System time:  0.000000000000000E+000
(PID.TID 0000.0001)     Wall clock time:  0.438735723495483
(PID.TID 0000.0001)          No. starts:           8
(PID.TID 0000.0001)           No. stops:           8
(PID.TID 0000.0001)   Seconds in section "DO_THE_MODEL_IO     [FORWARD_STEP]":
(PID.TID 0000.0001)           User time:  6.132173538208008E-002
(PID.TID 0000.0001)         System time:  0.000000000000000E+000
(PID.TID 0000.0001)     Wall clock time:  0.138335943222046
(PID.TID 0000.0001)          No. starts:           8
(PID.TID 0000.0001)           No. stops:           8
(PID.TID 0000.0001)   Seconds in section "DO_WRITE_PICKUP     [FORWARD_STEP]":
(PID.TID 0000.0001)           User time:  0.174996614456177
(PID.TID 0000.0001)         System time:  0.000000000000000E+000
(PID.TID 0000.0001)     Wall clock time:  0.279231071472168
(PID.TID 0000.0001)          No. starts:           8
(PID.TID 0000.0001)           No. stops:           8
(PID.TID 0000.0001) // ======================================================
(PID.TID 0000.0001) // Tile <-> Tile communication statistics
(PID.TID 0000.0001) // ======================================================
(PID.TID 0000.0001) // o Tile number: 000001
(PID.TID 0000.0001) //         No. X exchanges =              0
(PID.TID 0000.0001) //            Max. X spins =              0
(PID.TID 0000.0001) //            Min. X spins =     1000000000
(PID.TID 0000.0001) //          Total. X spins =              0
(PID.TID 0000.0001) //            Avg. X spins =       0.00E+00
(PID.TID 0000.0001) //         No. Y exchanges =              0
(PID.TID 0000.0001) //            Max. Y spins =              0
(PID.TID 0000.0001) //            Min. Y spins =     1000000000
(PID.TID 0000.0001) //          Total. Y spins =              0
(PID.TID 0000.0001) //            Avg. Y spins =       0.00E+00
(PID.TID 0000.0001) // o Tile number: 000002
(PID.TID 0000.0001) //         No. X exchanges =              0
(PID.TID 0000.0001) //            Max. X spins =              0
(PID.TID 0000.0001) //            Min. X spins =     1000000000
(PID.TID 0000.0001) //          Total. X spins =              0
(PID.TID 0000.0001) //            Avg. X spins =       0.00E+00
(PID.TID 0000.0001) //         No. Y exchanges =              0
(PID.TID 0000.0001) //            Max. Y spins =              0
(PID.TID 0000.0001) //            Min. Y spins =     1000000000
(PID.TID 0000.0001) //          Total. Y spins =              0
(PID.TID 0000.0001) //            Avg. Y spins =       0.00E+00
(PID.TID 0000.0001) // o Tile number: 000003
(PID.TID 0000.0001) //         No. X exchanges =              0
(PID.TID 0000.0001) //            Max. X spins =              0
(PID.TID 0000.0001) //            Min. X spins =     1000000000
(PID.TID 0000.0001) //          Total. X spins =              0
(PID.TID 0000.0001) //            Avg. X spins =       0.00E+00
(PID.TID 0000.0001) //         No. Y exchanges =              0
(PID.TID 0000.0001) //            Max. Y spins =              0
(PID.TID 0000.0001) //            Min. Y spins =     1000000000
(PID.TID 0000.0001) //          Total. Y spins =              0
(PID.TID 0000.0001) //            Avg. Y spins =       0.00E+00
(PID.TID 0000.0001) // o Tile number: 000004
(PID.TID 0000.0001) //         No. X exchanges =              0
(PID.TID 0000.0001) //            Max. X spins =              0
(PID.TID 0000.0001) //            Min. X spins =     1000000000
(PID.TID 0000.0001) //          Total. X spins =              0
(PID.TID 0000.0001) //            Avg. X spins =       0.00E+00
(PID.TID 0000.0001) //         No. Y exchanges =              0
(PID.TID 0000.0001) //            Max. Y spins =              0
(PID.TID 0000.0001) //            Min. Y spins =     1000000000
(PID.TID 0000.0001) //          Total. Y spins =              0
(PID.TID 0000.0001) //            Avg. Y spins =       0.00E+00
(PID.TID 0000.0001) // o Thread number: 000001
(PID.TID 0000.0001) //            No. barriers =           3628
(PID.TID 0000.0001) //      Max. barrier spins =              1
(PID.TID 0000.0001) //      Min. barrier spins =              1
(PID.TID 0000.0001) //     Total barrier spins =           3628
(PID.TID 0000.0001) //      Avg. barrier spins =       1.00E+00
PROGRAM MAIN: Execution ended Normally
[SHTns 3.4.5] built Nov 30 2020, 10:16:24, id: avx2,ishioka
        Lmax=63, Mmax*Mres=63, Mres=1, Nlm=2080  [1 threads, 4.pi normalized]
        => using FFTW : Mmax=63, Nphi=128, Nlat=64  (data layout : phi_inc=64, theta_inc=1, phi_embed=128)
        => using Gauss nodes
        + polar optimization threshold = 1.0e-10
        + using saved config
        + SHT accuracy = 2.23e-13
        => SHTns is ready.
